MODEL 1
REMARK VINA RESULT:      -5.4      0.000      0.000
REMARK  10 active torsions:
REMARK  status: ('A' for Active; 'I' for Inactive)
REMARK    1  A    between atoms: C_4  and  O_5 
REMARK    2  A    between atoms: C_8  and  C_9 
REMARK    3  A    between atoms: C_9  and  O_10 
REMARK    4  A    between atoms: C_14  and  C_15 
REMARK    5  A    between atoms: C_17  and  C_27 
REMARK    6  A    between atoms: C_18  and  O_19 
REMARK    7  A    between atoms: C_21  and  O_22 
REMARK    8  A    between atoms: C_24  and  O_25 
REMARK    9  A    between atoms: C_27  and  O_28 
REMARK   10  A    between atoms: C_32  and  O_33 
ROOT
HETATM    1  O   UNK N   1      25.693  40.246  54.839  0.00  0.00    -0.286 OA
HETATM    2  C   UNK N   1      26.872  40.312  54.530  0.00  0.00     0.199 C 
HETATM    3  C   UNK N   1      27.826  39.206  54.858  0.00  0.00     0.055 A 
HETATM    4  C   UNK N   1      27.407  37.893  55.240  0.00  0.00     0.081 A 
HETATM    5  C   UNK N   1      28.363  36.894  55.439  0.00  0.00     0.046 A 
HETATM    6  C   UNK N   1      29.727  37.153  55.282  0.00  0.00    -0.032 A 
HETATM    7  C   UNK N   1      30.148  38.440  54.938  0.00  0.00     0.018 A 
HETATM    8  C   UNK N   1      29.215  39.465  54.713  0.00  0.00    -0.029 A 
HETATM    9  C   UNK N   1      29.722  40.856  54.360  0.00  0.00     0.085 C 
HETATM   10  C   UNK N   1      28.728  41.630  53.512  0.00  0.00    -0.030 A 
HETATM   11  C   UNK N   1      27.343  41.420  53.662  0.00  0.00     0.055 A 
HETATM   12  C   UNK N   1      26.434  42.218  52.926  0.00  0.00     0.080 A 
HETATM   13  C   UNK N   1      26.918  43.189  52.037  0.00  0.00     0.037 A 
HETATM   14  C   UNK N   1      28.289  43.370  51.872  0.00  0.00     0.003 A 
HETATM   15  C   UNK N   1      29.190  42.602  52.607  0.00  0.00     0.009 A 
ENDROOT
BRANCH   9  16
HETATM   16  C   UNK N   1      30.061  41.623  55.680  0.00  0.00     0.166 C 
HETATM   17  O   UNK N   1      28.897  42.311  56.122  0.00  0.00    -0.372 OA
HETATM   18  C   UNK N   1      29.077  42.865  57.417  0.00  0.00     0.176 C 
HETATM   19  C   UNK N   1      30.179  43.959  57.371  0.00  0.00     0.180 C 
HETATM   20  C   UNK N   1      31.495  43.360  56.847  0.00  0.00     0.180 C 
HETATM   21  C   UNK N   1      31.227  42.636  55.514  0.00  0.00     0.179 C 
BRANCH  18  22
HETATM   22  C   UNK N   1      27.722  43.440  57.860  0.00  0.00     0.198 C 
BRANCH  22  23
HETATM   23  O   UNK N   1      27.575  44.777  57.461  0.00  0.00    -0.398 OA
HETATM   24  H   UNK N   1      28.471  45.097  57.176  0.00  0.00     0.209 HD
ENDBRANCH  22  23
ENDBRANCH  18  22
BRANCH  19  25
HETATM   25  O   UNK N   1      30.389  44.554  58.628  0.00  0.00    -0.390 OA
HETATM   26  H   UNK N   1      30.411  43.828  59.305  0.00  0.00     0.210 HD
ENDBRANCH  19  25
BRANCH  20  27
HETATM   27  O   UNK N   1      32.432  44.393  56.677  0.00  0.00    -0.390 OA
HETATM   28  H   UNK N   1      32.651  44.745  57.579  0.00  0.00     0.210 HD
ENDBRANCH  20  27
BRANCH  21  29
HETATM   29  O   UNK N   1      32.393  42.002  55.049  0.00  0.00    -0.390 OA
HETATM   30  H   UNK N   1      33.045  41.989  55.799  0.00  0.00     0.210 HD
ENDBRANCH  21  29
ENDBRANCH   9  16
BRANCH   4  31
HETATM   31  O   UNK N   1      26.111  37.532  55.389  0.00  0.00    -0.360 OA
HETATM   32  H   UNK N   1      25.767  36.879  56.003  0.00  0.00     0.217 HD
ENDBRANCH   4  31
BRANCH   6  33
HETATM   33  C   UNK N   1      30.722  36.040  55.466  0.00  0.00     0.203 C 
BRANCH  33  34
HETATM   34  O   UNK N   1      31.865  36.293  54.699  0.00  0.00    -0.396 OA
HETATM   35  H   UNK N   1      32.580  36.540  55.342  0.00  0.00     0.209 HD
ENDBRANCH  33  34
ENDBRANCH   6  33
BRANCH  12  36
HETATM   36  O   UNK N   1      25.102  42.032  53.049  0.00  0.00    -0.360 OA
HETATM   37  H   UNK N   1      24.508  42.056  52.286  0.00  0.00     0.217 HD
ENDBRANCH  12  36
TORSDOF 10
ENDMDL
MODEL 2
REMARK VINA RESULT:      -5.3      3.108      8.014
REMARK  10 active torsions:
REMARK  status: ('A' for Active; 'I' for Inactive)
REMARK    1  A    between atoms: C_4  and  O_5 
REMARK    2  A    between atoms: C_8  and  C_9 
REMARK    3  A    between atoms: C_9  and  O_10 
REMARK    4  A    between atoms: C_14  and  C_15 
REMARK    5  A    between atoms: C_17  and  C_27 
REMARK    6  A    between atoms: C_18  and  O_19 
REMARK    7  A    between atoms: C_21  and  O_22 
REMARK    8  A    between atoms: C_24  and  O_25 
REMARK    9  A    between atoms: C_27  and  O_28 
REMARK   10  A    between atoms: C_32  and  O_33 
ROOT
HETATM    1  O   UNK N   1      29.359  44.812  61.294  0.00  0.00    -0.286 OA
HETATM    2  C   UNK N   1      30.110  44.881  60.335  0.00  0.00     0.199 C 
HETATM    3  C   UNK N   1      30.072  46.048  59.398  0.00  0.00     0.055 A 
HETATM    4  C   UNK N   1      29.425  47.286  59.709  0.00  0.00     0.081 A 
HETATM    5  C   UNK N   1      29.518  48.356  58.815  0.00  0.00     0.046 A 
HETATM    6  C   UNK N   1      30.221  48.240  57.614  0.00  0.00    -0.032 A 
HETATM    7  C   UNK N   1      30.831  47.026  57.287  0.00  0.00     0.018 A 
HETATM    8  C   UNK N   1      30.775  45.934  58.169  0.00  0.00    -0.029 A 
HETATM    9  C   UNK N   1      31.436  44.626  57.761  0.00  0.00     0.085 C 
HETATM   10  C   UNK N   1      31.902  43.820  58.962  0.00  0.00    -0.030 A 
HETATM   11  C   UNK N   1      31.201  43.886  60.183  0.00  0.00     0.055 A 
HETATM   12  C   UNK N   1      31.598  43.057  61.259  0.00  0.00     0.080 A 
HETATM   13  C   UNK N   1      32.699  42.200  61.111  0.00  0.00     0.037 A 
HETATM   14  C   UNK N   1      33.405  42.163  59.911  0.00  0.00     0.003 A 
HETATM   15  C   UNK N   1      33.009  42.962  58.841  0.00  0.00     0.009 A 
ENDROOT
BRANCH   9  16
HETATM   16  C   UNK N   1      30.440  43.806  56.879  0.00  0.00     0.166 C 
HETATM   17  O   UNK N   1      29.332  43.416  57.679  0.00  0.00    -0.372 OA
HETATM   18  C   UNK N   1      28.296  42.841  56.896  0.00  0.00     0.176 C 
HETATM   19  C   UNK N   1      28.796  41.517  56.257  0.00  0.00     0.180 C 
HETATM   20  C   UNK N   1      30.044  41.783  55.399  0.00  0.00     0.180 C 
HETATM   21  C   UNK N   1      31.085  42.544  56.242  0.00  0.00     0.179 C 
BRANCH  18  22
HETATM   22  C   UNK N   1      27.095  42.607  57.828  0.00  0.00     0.198 C 
BRANCH  22  23
HETATM   23  O   UNK N   1      25.907  42.435  57.101  0.00  0.00    -0.398 OA
HETATM   24  H   UNK N   1      26.123  42.599  56.146  0.00  0.00     0.209 HD
ENDBRANCH  22  23
ENDBRANCH  18  22
BRANCH  19  25
HETATM   25  O   UNK N   1      27.803  40.894  55.480  0.00  0.00    -0.390 OA
HETATM   26  H   UNK N   1      27.589  40.024  55.906  0.00  0.00     0.210 HD
ENDBRANCH  19  25
BRANCH  20  27
HETATM   27  O   UNK N   1      30.562  40.556  54.952  0.00  0.00    -0.390 OA
HETATM   28  H   UNK N   1      31.296  40.303  55.569  0.00  0.00     0.210 HD
ENDBRANCH  20  27
BRANCH  21  29
HETATM   29  O   UNK N   1      32.206  42.880  55.462  0.00  0.00    -0.390 OA
HETATM   30  H   UNK N   1      31.873  43.215  54.588  0.00  0.00     0.210 HD
ENDBRANCH  21  29
ENDBRANCH   9  16
BRANCH   4  31
HETATM   31  O   UNK N   1      28.745  47.510  60.858  0.00  0.00    -0.360 OA
HETATM   32  H   UNK N   1      29.015  47.249  61.741  0.00  0.00     0.217 HD
ENDBRANCH   4  31
BRANCH   6  33
HETATM   33  C   UNK N   1      30.330  49.429  56.698  0.00  0.00     0.203 C 
BRANCH  33  34
HETATM   34  O   UNK N   1      31.184  49.128  55.630  0.00  0.00    -0.396 OA
HETATM   35  H   UNK N   1      31.876  48.517  55.993  0.00  0.00     0.209 HD
ENDBRANCH  33  34
ENDBRANCH   6  33
BRANCH  12  36
HETATM   36  O   UNK N   1      30.945  43.106  62.440  0.00  0.00    -0.360 OA
HETATM   37  H   UNK N   1      30.945  43.899  62.993  0.00  0.00     0.217 HD
ENDBRANCH  12  36
TORSDOF 10
ENDMDL
MODEL 3
REMARK VINA RESULT:      -5.2      2.641      6.226
REMARK  10 active torsions:
REMARK  status: ('A' for Active; 'I' for Inactive)
REMARK    1  A    between atoms: C_4  and  O_5 
REMARK    2  A    between atoms: C_8  and  C_9 
REMARK    3  A    between atoms: C_9  and  O_10 
REMARK    4  A    between atoms: C_14  and  C_15 
REMARK    5  A    between atoms: C_17  and  C_27 
REMARK    6  A    between atoms: C_18  and  O_19 
REMARK    7  A    between atoms: C_21  and  O_22 
REMARK    8  A    between atoms: C_24  and  O_25 
REMARK    9  A    between atoms: C_27  and  O_28 
REMARK   10  A    between atoms: C_32  and  O_33 
ROOT
HETATM    1  O   UNK N   1      32.625  43.274  56.277  0.00  0.00    -0.286 OA
HETATM    2  C   UNK N   1      31.628  42.908  56.877  0.00  0.00     0.199 C 
HETATM    3  C   UNK N   1      30.474  42.280  56.160  0.00  0.00     0.055 A 
HETATM    4  C   UNK N   1      30.561  41.768  54.827  0.00  0.00     0.081 A 
HETATM    5  C   UNK N   1      29.461  41.114  54.266  0.00  0.00     0.046 A 
HETATM    6  C   UNK N   1      28.269  40.958  54.977  0.00  0.00    -0.032 A 
HETATM    7  C   UNK N   1      28.164  41.481  56.269  0.00  0.00     0.018 A 
HETATM    8  C   UNK N   1      29.255  42.128  56.871  0.00  0.00    -0.029 A 
HETATM    9  C   UNK N   1      29.087  42.700  58.272  0.00  0.00     0.085 C 
HETATM   10  C   UNK N   1      30.397  42.731  59.039  0.00  0.00    -0.030 A 
HETATM   11  C   UNK N   1      31.619  42.917  58.361  0.00  0.00     0.055 A 
HETATM   12  C   UNK N   1      32.817  43.035  59.106  0.00  0.00     0.080 A 
HETATM   13  C   UNK N   1      32.783  42.938  60.504  0.00  0.00     0.037 A 
HETATM   14  C   UNK N   1      31.576  42.724  61.165  0.00  0.00     0.003 A 
HETATM   15  C   UNK N   1      30.390  42.626  60.441  0.00  0.00     0.009 A 
ENDROOT
BRANCH   9  16
HETATM   16  C   UNK N   1      28.456  44.127  58.167  0.00  0.00     0.166 C 
HETATM   17  O   UNK N   1      29.499  45.093  58.198  0.00  0.00    -0.372 OA
HETATM   18  C   UNK N   1      29.016  46.395  57.908  0.00  0.00     0.176 C 
HETATM   19  C   UNK N   1      28.033  46.850  59.021  0.00  0.00     0.180 C 
HETATM   20  C   UNK N   1      26.870  45.851  59.139  0.00  0.00     0.180 C 
HETATM   21  C   UNK N   1      27.439  44.429  59.301  0.00  0.00     0.179 C 
BRANCH  18  22
HETATM   22  C   UNK N   1      30.237  47.325  57.810  0.00  0.00     0.198 C 
BRANCH  22  23
HETATM   23  O   UNK N   1      30.028  48.351  56.876  0.00  0.00    -0.398 OA
HETATM   24  H   UNK N   1      29.876  47.918  55.996  0.00  0.00     0.209 HD
ENDBRANCH  22  23
ENDBRANCH  18  22
BRANCH  19  25
HETATM   25  O   UNK N   1      27.533  48.145  58.791  0.00  0.00    -0.390 OA
HETATM   26  H   UNK N   1      27.579  48.642  59.649  0.00  0.00     0.210 HD
ENDBRANCH  19  25
BRANCH  20  27
HETATM   27  O   UNK N   1      26.076  46.203  60.244  0.00  0.00    -0.390 OA
HETATM   28  H   UNK N   1      26.631  46.773  60.837  0.00  0.00     0.210 HD
ENDBRANCH  20  27
BRANCH  21  29
HETATM   29  O   UNK N   1      26.402  43.479  59.326  0.00  0.00    -0.390 OA
HETATM   30  H   UNK N   1      26.649  42.786  59.994  0.00  0.00     0.210 HD
ENDBRANCH  21  29
ENDBRANCH   9  16
BRANCH   4  31
HETATM   31  O   UNK N   1      31.678  41.841  54.065  0.00  0.00    -0.360 OA
HETATM   32  H   UNK N   1      31.737  42.186  53.171  0.00  0.00     0.217 HD
ENDBRANCH   4  31
BRANCH   6  33
HETATM   33  C   UNK N   1      27.121  40.212  54.352  0.00  0.00     0.203 C 
BRANCH  33  34
HETATM   34  O   UNK N   1      27.558  39.546  53.201  0.00  0.00    -0.396 OA
HETATM   35  H   UNK N   1      27.365  40.153  52.439  0.00  0.00     0.209 HD
ENDBRANCH  33  34
ENDBRANCH   6  33
BRANCH  12  36
HETATM   36  O   UNK N   1      34.001  43.209  58.478  0.00  0.00    -0.360 OA
HETATM   37  H   UNK N   1      34.843  43.167  58.951  0.00  0.00     0.217 HD
ENDBRANCH  12  36
TORSDOF 10
ENDMDL
MODEL 4
REMARK VINA RESULT:      -4.9     18.978     23.247
REMARK  10 active torsions:
REMARK  status: ('A' for Active; 'I' for Inactive)
REMARK    1  A    between atoms: C_4  and  O_5 
REMARK    2  A    between atoms: C_8  and  C_9 
REMARK    3  A    between atoms: C_9  and  O_10 
REMARK    4  A    between atoms: C_14  and  C_15 
REMARK    5  A    between atoms: C_17  and  C_27 
REMARK    6  A    between atoms: C_18  and  O_19 
REMARK    7  A    between atoms: C_21  and  O_22 
REMARK    8  A    between atoms: C_24  and  O_25 
REMARK    9  A    between atoms: C_27  and  O_28 
REMARK   10  A    between atoms: C_32  and  O_33 
ROOT
HETATM    1  O   UNK N   1      49.285  48.841  60.097  0.00  0.00    -0.286 OA
HETATM    2  C   UNK N   1      48.840  49.902  60.504  0.00  0.00     0.199 C 
HETATM    3  C   UNK N   1      47.367  50.122  60.651  0.00  0.00     0.055 A 
HETATM    4  C   UNK N   1      46.408  49.060  60.650  0.00  0.00     0.081 A 
HETATM    5  C   UNK N   1      45.061  49.347  60.885  0.00  0.00     0.046 A 
HETATM    6  C   UNK N   1      44.625  50.654  61.110  0.00  0.00    -0.032 A 
HETATM    7  C   UNK N   1      45.549  51.703  61.083  0.00  0.00     0.018 A 
HETATM    8  C   UNK N   1      46.914  51.451  60.868  0.00  0.00    -0.029 A 
HETATM    9  C   UNK N   1      47.880  52.626  60.826  0.00  0.00     0.085 C 
HETATM   10  C   UNK N   1      49.279  52.235  61.270  0.00  0.00    -0.030 A 
HETATM   11  C   UNK N   1      49.766  50.933  61.033  0.00  0.00     0.055 A 
HETATM   12  C   UNK N   1      51.104  50.619  61.373  0.00  0.00     0.080 A 
HETATM   13  C   UNK N   1      51.922  51.592  61.965  0.00  0.00     0.037 A 
HETATM   14  C   UNK N   1      51.423  52.868  62.223  0.00  0.00     0.003 A 
HETATM   15  C   UNK N   1      50.114  53.190  61.874  0.00  0.00     0.009 A 
ENDROOT
BRANCH   9  16
HETATM   16  C   UNK N   1      47.889  53.225  59.382  0.00  0.00     0.166 C 
HETATM   17  O   UNK N   1      49.205  53.127  58.853  0.00  0.00    -0.372 OA
HETATM   18  C   UNK N   1      49.243  53.469  57.476  0.00  0.00     0.176 C 
HETATM   19  C   UNK N   1      48.865  54.965  57.296  0.00  0.00     0.180 C 
HETATM   20  C   UNK N   1      47.470  55.231  57.886  0.00  0.00     0.180 C 
HETATM   21  C   UNK N   1      47.423  54.707  59.333  0.00  0.00     0.179 C 
BRANCH  18  22
HETATM   22  C   UNK N   1      50.666  53.177  56.971  0.00  0.00     0.198 C 
BRANCH  22  23
HETATM   23  O   UNK N   1      50.675  52.886  55.598  0.00  0.00    -0.398 OA
HETATM   24  H   UNK N   1      49.940  52.240  55.432  0.00  0.00     0.209 HD
ENDBRANCH  22  23
ENDBRANCH  18  22
BRANCH  19  25
HETATM   25  O   UNK N   1      48.901  55.364  55.948  0.00  0.00    -0.390 OA
HETATM   26  H   UNK N   1      48.238  54.815  55.454  0.00  0.00     0.210 HD
ENDBRANCH  19  25
BRANCH  20  27
HETATM   27  O   UNK N   1      47.211  56.611  57.844  0.00  0.00    -0.390 OA
HETATM   28  H   UNK N   1      46.226  56.726  57.811  0.00  0.00     0.210 HD
ENDBRANCH  20  27
BRANCH  21  29
HETATM   29  O   UNK N   1      46.134  54.856  59.875  0.00  0.00    -0.390 OA
HETATM   30  H   UNK N   1      45.500  54.953  59.116  0.00  0.00     0.210 HD
ENDBRANCH  21  29
ENDBRANCH   9  16
BRANCH   4  31
HETATM   31  O   UNK N   1      46.730  47.758  60.471  0.00  0.00    -0.360 OA
HETATM   32  H   UNK N   1      46.276  47.001  60.848  0.00  0.00     0.217 HD
ENDBRANCH   4  31
BRANCH   6  33
HETATM   33  C   UNK N   1      43.172  50.916  61.399  0.00  0.00     0.203 C 
BRANCH  33  34
HETATM   34  O   UNK N   1      42.383  50.420  60.354  0.00  0.00    -0.396 OA
HETATM   35  H   UNK N   1      42.113  51.207  59.814  0.00  0.00     0.209 HD
ENDBRANCH  33  34
ENDBRANCH   6  33
BRANCH  12  36
HETATM   36  O   UNK N   1      51.592  49.378  61.160  0.00  0.00    -0.360 OA
HETATM   37  H   UNK N   1      51.350  48.858  60.381  0.00  0.00     0.217 HD
ENDBRANCH  12  36
TORSDOF 10
ENDMDL
MODEL 5
REMARK VINA RESULT:      -4.8      1.866      6.127
REMARK  10 active torsions:
REMARK  status: ('A' for Active; 'I' for Inactive)
REMARK    1  A    between atoms: C_4  and  O_5 
REMARK    2  A    between atoms: C_8  and  C_9 
REMARK    3  A    between atoms: C_9  and  O_10 
REMARK    4  A    between atoms: C_14  and  C_15 
REMARK    5  A    between atoms: C_17  and  C_27 
REMARK    6  A    between atoms: C_18  and  O_19 
REMARK    7  A    between atoms: C_21  and  O_22 
REMARK    8  A    between atoms: C_24  and  O_25 
REMARK    9  A    between atoms: C_27  and  O_28 
REMARK   10  A    between atoms: C_32  and  O_33 
ROOT
HETATM    1  O   UNK N   1      31.323  41.830  53.643  0.00  0.00    -0.286 OA
HETATM    2  C   UNK N   1      30.295  41.815  54.300  0.00  0.00     0.199 C 
HETATM    3  C   UNK N   1      30.311  42.062  55.776  0.00  0.00     0.055 A 
HETATM    4  C   UNK N   1      31.424  42.639  56.466  0.00  0.00     0.081 A 
HETATM    5  C   UNK N   1      31.319  42.920  57.831  0.00  0.00     0.046 A 
HETATM    6  C   UNK N   1      30.152  42.637  58.543  0.00  0.00    -0.032 A 
HETATM    7  C   UNK N   1      29.071  42.044  57.886  0.00  0.00     0.018 A 
HETATM    8  C   UNK N   1      29.132  41.765  56.510  0.00  0.00    -0.029 A 
HETATM    9  C   UNK N   1      27.937  41.101  55.841  0.00  0.00     0.085 C 
HETATM   10  C   UNK N   1      27.826  41.466  54.372  0.00  0.00    -0.030 A 
HETATM   11  C   UNK N   1      28.984  41.729  53.611  0.00  0.00     0.055 A 
HETATM   12  C   UNK N   1      28.862  41.978  52.222  0.00  0.00     0.080 A 
HETATM   13  C   UNK N   1      27.594  41.987  51.623  0.00  0.00     0.037 A 
HETATM   14  C   UNK N   1      26.453  41.757  52.388  0.00  0.00     0.003 A 
HETATM   15  C   UNK N   1      26.565  41.492  53.751  0.00  0.00     0.009 A 
ENDROOT
BRANCH   9  16
HETATM   16  C   UNK N   1      28.042  39.553  56.035  0.00  0.00     0.166 C 
HETATM   17  O   UNK N   1      29.036  39.046  55.154  0.00  0.00    -0.372 OA
HETATM   18  C   UNK N   1      29.323  37.681  55.417  0.00  0.00     0.176 C 
HETATM   19  C   UNK N   1      28.068  36.815  55.122  0.00  0.00     0.180 C 
HETATM   20  C   UNK N   1      26.882  37.297  55.975  0.00  0.00     0.180 C 
HETATM   21  C   UNK N   1      26.700  38.814  55.778  0.00  0.00     0.179 C 
BRANCH  18  22
HETATM   22  C   UNK N   1      30.512  37.284  54.526  0.00  0.00     0.198 C 
BRANCH  22  23
HETATM   23  O   UNK N   1      31.133  36.114  54.989  0.00  0.00    -0.398 OA
HETATM   24  H   UNK N   1      31.320  35.549  54.195  0.00  0.00     0.209 HD
ENDBRANCH  22  23
ENDBRANCH  18  22
BRANCH  19  25
HETATM   25  O   UNK N   1      28.300  35.447  55.352  0.00  0.00    -0.390 OA
HETATM   26  H   UNK N   1      29.272  35.283  55.237  0.00  0.00     0.210 HD
ENDBRANCH  19  25
BRANCH  20  27
HETATM   27  O   UNK N   1      25.727  36.598  55.588  0.00  0.00    -0.390 OA
HETATM   28  H   UNK N   1      25.040  36.752  56.288  0.00  0.00     0.210 HD
ENDBRANCH  20  27
BRANCH  21  29
HETATM   29  O   UNK N   1      25.677  39.304  56.610  0.00  0.00    -0.390 OA
HETATM   30  H   UNK N   1      24.915  38.670  56.552  0.00  0.00     0.210 HD
ENDBRANCH  21  29
ENDBRANCH   9  16
BRANCH   4  31
HETATM   31  O   UNK N   1      32.587  42.978  55.863  0.00  0.00    -0.360 OA
HETATM   32  H   UNK N   1      33.269  42.375  55.558  0.00  0.00     0.217 HD
ENDBRANCH   4  31
BRANCH   6  33
HETATM   33  C   UNK N   1      30.066  42.991  60.003  0.00  0.00     0.203 C 
BRANCH  33  34
HETATM   34  O   UNK N   1      31.354  43.127  60.535  0.00  0.00    -0.396 OA
HETATM   35  H   UNK N   1      31.609  42.231  60.876  0.00  0.00     0.209 HD
ENDBRANCH  33  34
ENDBRANCH   6  33
BRANCH  12  36
HETATM   36  O   UNK N   1      29.956  42.237  51.473  0.00  0.00    -0.360 OA
HETATM   37  H   UNK N   1      30.042  41.918  50.565  0.00  0.00     0.217 HD
ENDBRANCH  12  36
TORSDOF 10
ENDMDL
MODEL 6
REMARK VINA RESULT:      -4.6      2.933      5.361
REMARK  10 active torsions:
REMARK  status: ('A' for Active; 'I' for Inactive)
REMARK    1  A    between atoms: C_4  and  O_5 
REMARK    2  A    between atoms: C_8  and  C_9 
REMARK    3  A    between atoms: C_9  and  O_10 
REMARK    4  A    between atoms: C_14  and  C_15 
REMARK    5  A    between atoms: C_17  and  C_27 
REMARK    6  A    between atoms: C_18  and  O_19 
REMARK    7  A    between atoms: C_21  and  O_22 
REMARK    8  A    between atoms: C_24  and  O_25 
REMARK    9  A    between atoms: C_27  and  O_28 
REMARK   10  A    between atoms: C_32  and  O_33 
ROOT
HETATM    1  O   UNK N   1      26.573  44.612  58.621  0.00  0.00    -0.286 OA
HETATM    2  C   UNK N   1      27.677  44.538  58.106  0.00  0.00     0.199 C 
HETATM    3  C   UNK N   1      28.074  43.351  57.284  0.00  0.00     0.055 A 
HETATM    4  C   UNK N   1      27.136  42.400  56.771  0.00  0.00     0.081 A 
HETATM    5  C   UNK N   1      27.583  41.373  55.935  0.00  0.00     0.046 A 
HETATM    6  C   UNK N   1      28.932  41.247  55.597  0.00  0.00    -0.032 A 
HETATM    7  C   UNK N   1      29.860  42.153  56.117  0.00  0.00     0.018 A 
HETATM    8  C   UNK N   1      29.446  43.209  56.945  0.00  0.00    -0.029 A 
HETATM    9  C   UNK N   1      30.495  44.159  57.505  0.00  0.00     0.085 C 
HETATM   10  C   UNK N   1      29.933  45.545  57.764  0.00  0.00    -0.030 A 
HETATM   11  C   UNK N   1      28.584  45.712  58.138  0.00  0.00     0.055 A 
HETATM   12  C   UNK N   1      28.107  47.004  58.464  0.00  0.00     0.080 A 
HETATM   13  C   UNK N   1      28.969  48.107  58.386  0.00  0.00     0.037 A 
HETATM   14  C   UNK N   1      30.293  47.939  57.987  0.00  0.00     0.003 A 
HETATM   15  C   UNK N   1      30.775  46.668  57.683  0.00  0.00     0.009 A 
ENDROOT
BRANCH   9  16
HETATM   16  C   UNK N   1      31.100  43.538  58.806  0.00  0.00     0.166 C 
HETATM   17  O   UNK N   1      30.630  44.275  59.927  0.00  0.00    -0.372 OA
HETATM   18  C   UNK N   1      30.979  43.647  61.151  0.00  0.00     0.176 C 
HETATM   19  C   UNK N   1      32.524  43.639  61.314  0.00  0.00     0.180 C 
HETATM   20  C   UNK N   1      33.176  42.915  60.125  0.00  0.00     0.180 C 
HETATM   21  C   UNK N   1      32.654  43.527  58.811  0.00  0.00     0.179 C 
BRANCH  18  22
HETATM   22  C   UNK N   1      30.291  44.431  62.281  0.00  0.00     0.198 C 
BRANCH  22  23
HETATM   23  O   UNK N   1      30.228  43.680  63.464  0.00  0.00    -0.398 OA
HETATM   24  H   UNK N   1      30.786  42.870  63.326  0.00  0.00     0.209 HD
ENDBRANCH  22  23
ENDBRANCH  18  22
BRANCH  19  25
HETATM   25  O   UNK N   1      32.928  43.039  62.521  0.00  0.00    -0.390 OA
HETATM   26  H   UNK N   1      33.802  43.433  62.775  0.00  0.00     0.210 HD
ENDBRANCH  19  25
BRANCH  20  27
HETATM   27  O   UNK N   1      34.572  43.047  60.219  0.00  0.00    -0.390 OA
HETATM   28  H   UNK N   1      34.780  43.326  61.148  0.00  0.00     0.210 HD
ENDBRANCH  20  27
BRANCH  21  29
HETATM   29  O   UNK N   1      33.164  42.832  57.701  0.00  0.00    -0.390 OA
HETATM   30  H   UNK N   1      34.156  42.870  57.754  0.00  0.00     0.210 HD
ENDBRANCH  21  29
ENDBRANCH   9  16
BRANCH   4  31
HETATM   31  O   UNK N   1      25.806  42.450  57.014  0.00  0.00    -0.360 OA
HETATM   32  H   UNK N   1      25.150  42.934  56.506  0.00  0.00     0.217 HD
ENDBRANCH   4  31
BRANCH   6  33
HETATM   33  C   UNK N   1      29.365  40.151  54.662  0.00  0.00     0.203 C 
BRANCH  33  34
HETATM   34  O   UNK N   1      30.762  40.059  54.653  0.00  0.00    -0.396 OA
HETATM   35  H   UNK N   1      31.012  39.720  53.754  0.00  0.00     0.209 HD
ENDBRANCH  33  34
ENDBRANCH   6  33
BRANCH  12  36
HETATM   36  O   UNK N   1      26.817  47.190  58.820  0.00  0.00    -0.360 OA
HETATM   37  H   UNK N   1      26.571  47.625  59.648  0.00  0.00     0.217 HD
ENDBRANCH  12  36
TORSDOF 10
ENDMDL
MODEL 7
REMARK VINA RESULT:      -4.5      5.714      7.984
REMARK  10 active torsions:
REMARK  status: ('A' for Active; 'I' for Inactive)
REMARK    1  A    between atoms: C_4  and  O_5 
REMARK    2  A    between atoms: C_8  and  C_9 
REMARK    3  A    between atoms: C_9  and  O_10 
REMARK    4  A    between atoms: C_14  and  C_15 
REMARK    5  A    between atoms: C_17  and  C_27 
REMARK    6  A    between atoms: C_18  and  O_19 
REMARK    7  A    between atoms: C_21  and  O_22 
REMARK    8  A    between atoms: C_24  and  O_25 
REMARK    9  A    between atoms: C_27  and  O_28 
REMARK   10  A    between atoms: C_32  and  O_33 
ROOT
HETATM    1  O   UNK N   1      30.588  46.993  57.070  0.00  0.00    -0.286 OA
HETATM    2  C   UNK N   1      30.441  46.586  58.211  0.00  0.00     0.199 C 
HETATM    3  C   UNK N   1      31.004  45.269  58.647  0.00  0.00     0.055 A 
HETATM    4  C   UNK N   1      32.001  44.557  57.908  0.00  0.00     0.081 A 
HETATM    5  C   UNK N   1      32.539  43.379  58.434  0.00  0.00     0.046 A 
HETATM    6  C   UNK N   1      32.115  42.874  59.665  0.00  0.00    -0.032 A 
HETATM    7  C   UNK N   1      31.120  43.545  60.380  0.00  0.00     0.018 A 
HETATM    8  C   UNK N   1      30.569  44.742  59.891  0.00  0.00    -0.029 A 
HETATM    9  C   UNK N   1      29.473  45.428  60.695  0.00  0.00     0.085 C 
HETATM   10  C   UNK N   1      29.458  46.930  60.478  0.00  0.00    -0.030 A 
HETATM   11  C   UNK N   1      29.850  47.478  59.239  0.00  0.00     0.055 A 
HETATM   12  C   UNK N   1      29.740  48.874  59.030  0.00  0.00     0.080 A 
HETATM   13  C   UNK N   1      29.271  49.700  60.061  0.00  0.00     0.037 A 
HETATM   14  C   UNK N   1      28.915  49.155  61.293  0.00  0.00     0.003 A 
HETATM   15  C   UNK N   1      29.002  47.780  61.500  0.00  0.00     0.009 A 
ENDROOT
BRANCH   9  16
HETATM   16  C   UNK N   1      28.096  44.787  60.326  0.00  0.00     0.166 C 
HETATM   17  O   UNK N   1      27.467  45.589  59.335  0.00  0.00    -0.372 OA
HETATM   18  C   UNK N   1      26.307  44.961  58.812  0.00  0.00     0.176 C 
HETATM   19  C   UNK N   1      25.237  44.819  59.929  0.00  0.00     0.180 C 
HETATM   20  C   UNK N   1      25.809  44.011  61.106  0.00  0.00     0.180 C 
HETATM   21  C   UNK N   1      27.147  44.636  61.547  0.00  0.00     0.179 C 
BRANCH  18  22
HETATM   22  C   UNK N   1      25.802  45.831  57.648  0.00  0.00     0.198 C 
BRANCH  22  23
HETATM   23  O   UNK N   1      26.855  46.516  57.023  0.00  0.00    -0.398 OA
HETATM   24  H   UNK N   1      27.692  46.030  57.246  0.00  0.00     0.209 HD
ENDBRANCH  22  23
ENDBRANCH  18  22
BRANCH  19  25
HETATM   25  O   UNK N   1      24.057  44.215  59.461  0.00  0.00    -0.390 OA
HETATM   26  H   UNK N   1      23.320  44.481  60.070  0.00  0.00     0.210 HD
ENDBRANCH  19  25
BRANCH  20  27
HETATM   27  O   UNK N   1      24.881  44.020  62.160  0.00  0.00    -0.390 OA
HETATM   28  H   UNK N   1      25.193  43.362  62.835  0.00  0.00     0.210 HD
ENDBRANCH  20  27
BRANCH  21  29
HETATM   29  O   UNK N   1      27.741  43.872  62.567  0.00  0.00    -0.390 OA
HETATM   30  H   UNK N   1      28.499  44.399  62.933  0.00  0.00     0.210 HD
ENDBRANCH  21  29
ENDBRANCH   9  16
BRANCH   4  31
HETATM   31  O   UNK N   1      32.500  44.977  56.722  0.00  0.00    -0.360 OA
HETATM   32  H   UNK N   1      32.891  44.426  56.040  0.00  0.00     0.217 HD
ENDBRANCH   4  31
BRANCH   6  33
HETATM   33  C   UNK N   1      32.748  41.624  60.214  0.00  0.00     0.203 C 
BRANCH  33  34
HETATM   34  O   UNK N   1      34.098  41.574  59.846  0.00  0.00    -0.396 OA
HETATM   35  H   UNK N   1      34.417  42.514  59.837  0.00  0.00     0.209 HD
ENDBRANCH  33  34
ENDBRANCH   6  33
BRANCH  12  36
HETATM   36  O   UNK N   1      30.114  49.423  57.853  0.00  0.00    -0.360 OA
HETATM   37  H   UNK N   1      29.581  50.097  57.410  0.00  0.00     0.217 HD
ENDBRANCH  12  36
TORSDOF 10
ENDMDL
MODEL 8
REMARK VINA RESULT:      -4.4     18.533     22.849
REMARK  10 active torsions:
REMARK  status: ('A' for Active; 'I' for Inactive)
REMARK    1  A    between atoms: C_4  and  O_5 
REMARK    2  A    between atoms: C_8  and  C_9 
REMARK    3  A    between atoms: C_9  and  O_10 
REMARK    4  A    between atoms: C_14  and  C_15 
REMARK    5  A    between atoms: C_17  and  C_27 
REMARK    6  A    between atoms: C_18  and  O_19 
REMARK    7  A    between atoms: C_21  and  O_22 
REMARK    8  A    between atoms: C_24  and  O_25 
REMARK    9  A    between atoms: C_27  and  O_28 
REMARK   10  A    between atoms: C_32  and  O_33 
ROOT
HETATM    1  O   UNK N   1      48.709  50.260  60.341  0.00  0.00    -0.286 OA
HETATM    2  C   UNK N   1      48.016  51.067  60.940  0.00  0.00     0.199 C 
HETATM    3  C   UNK N   1      46.532  50.901  61.031  0.00  0.00     0.055 A 
HETATM    4  C   UNK N   1      45.856  49.676  60.734  0.00  0.00     0.081 A 
HETATM    5  C   UNK N   1      44.477  49.582  60.935  0.00  0.00     0.046 A 
HETATM    6  C   UNK N   1      43.737  50.666  61.410  0.00  0.00    -0.032 A 
HETATM    7  C   UNK N   1      44.382  51.878  61.675  0.00  0.00     0.018 A 
HETATM    8  C   UNK N   1      45.770  52.004  61.503  0.00  0.00    -0.029 A 
HETATM    9  C   UNK N   1      46.426  53.348  61.784  0.00  0.00     0.085 C 
HETATM   10  C   UNK N   1      47.872  53.200  62.225  0.00  0.00    -0.030 A 
HETATM   11  C   UNK N   1      48.661  52.136  61.743  0.00  0.00     0.055 A 
HETATM   12  C   UNK N   1      50.030  52.070  62.095  0.00  0.00     0.080 A 
HETATM   13  C   UNK N   1      50.582  53.044  62.939  0.00  0.00     0.037 A 
HETATM   14  C   UNK N   1      49.788  54.076  63.436  0.00  0.00     0.003 A 
HETATM   15  C   UNK N   1      48.444  54.158  63.079  0.00  0.00     0.009 A 
ENDROOT
BRANCH   9  16
HETATM   16  C   UNK N   1      46.310  54.247  60.510  0.00  0.00     0.166 C 
HETATM   17  O   UNK N   1      47.521  54.152  59.771  0.00  0.00    -0.372 OA
HETATM   18  C   UNK N   1      47.411  54.784  58.504  0.00  0.00     0.176 C 
HETATM   19  C   UNK N   1      47.193  56.310  58.696  0.00  0.00     0.180 C 
HETATM   20  C   UNK N   1      45.933  56.561  59.540  0.00  0.00     0.180 C 
HETATM   21  C   UNK N   1      46.022  55.737  60.839  0.00  0.00     0.179 C 
BRANCH  18  22
HETATM   22  C   UNK N   1      48.707  54.487  57.731  0.00  0.00     0.198 C 
BRANCH  22  23
HETATM   23  O   UNK N   1      48.522  54.618  56.347  0.00  0.00    -0.398 OA
HETATM   24  H   UNK N   1      48.751  53.743  55.937  0.00  0.00     0.209 HD
ENDBRANCH  22  23
ENDBRANCH  18  22
BRANCH  19  25
HETATM   25  O   UNK N   1      47.093  56.991  57.469  0.00  0.00    -0.390 OA
HETATM   26  H   UNK N   1      47.403  57.923  57.616  0.00  0.00     0.210 HD
ENDBRANCH  19  25
BRANCH  20  27
HETATM   27  O   UNK N   1      45.838  57.934  59.823  0.00  0.00    -0.390 OA
HETATM   28  H   UNK N   1      45.222  58.331  59.154  0.00  0.00     0.210 HD
ENDBRANCH  20  27
BRANCH  21  29
HETATM   29  O   UNK N   1      44.845  55.876  61.597  0.00  0.00    -0.390 OA
HETATM   30  H   UNK N   1      45.086  55.738  62.551  0.00  0.00     0.210 HD
ENDBRANCH  21  29
ENDBRANCH   9  16
BRANCH   4  31
HETATM   31  O   UNK N   1      46.484  48.559  60.297  0.00  0.00    -0.360 OA
HETATM   32  H   UNK N   1      47.138  48.509  59.596  0.00  0.00     0.217 HD
ENDBRANCH   4  31
BRANCH   6  33
HETATM   33  C   UNK N   1      42.259  50.512  61.651  0.00  0.00     0.203 C 
BRANCH  33  34
HETATM   34  O   UNK N   1      41.648  49.964  60.516  0.00  0.00    -0.396 OA
HETATM   35  H   UNK N   1      42.117  49.108  60.336  0.00  0.00     0.209 HD
ENDBRANCH  33  34
ENDBRANCH   6  33
BRANCH  12  36
HETATM   36  O   UNK N   1      50.805  51.057  61.649  0.00  0.00    -0.360 OA
HETATM   37  H   UNK N   1      51.300  51.117  60.821  0.00  0.00     0.217 HD
ENDBRANCH  12  36
TORSDOF 10
ENDMDL
MODEL 9
REMARK VINA RESULT:      -4.4     19.972     23.721
REMARK  10 active torsions:
REMARK  status: ('A' for Active; 'I' for Inactive)
REMARK    1  A    between atoms: C_4  and  O_5 
REMARK    2  A    between atoms: C_8  and  C_9 
REMARK    3  A    between atoms: C_9  and  O_10 
REMARK    4  A    between atoms: C_14  and  C_15 
REMARK    5  A    between atoms: C_17  and  C_27 
REMARK    6  A    between atoms: C_18  and  O_19 
REMARK    7  A    between atoms: C_21  and  O_22 
REMARK    8  A    between atoms: C_24  and  O_25 
REMARK    9  A    between atoms: C_27  and  O_28 
REMARK   10  A    between atoms: C_32  and  O_33 
ROOT
HETATM    1  O   UNK N   1      47.325  54.667  57.336  0.00  0.00    -0.286 OA
HETATM    2  C   UNK N   1      48.080  54.290  58.216  0.00  0.00     0.199 C 
HETATM    3  C   UNK N   1      49.270  53.435  57.908  0.00  0.00     0.055 A 
HETATM    4  C   UNK N   1      49.798  53.267  56.589  0.00  0.00     0.081 A 
HETATM    5  C   UNK N   1      50.967  52.525  56.404  0.00  0.00     0.046 A 
HETATM    6  C   UNK N   1      51.628  51.931  57.481  0.00  0.00    -0.032 A 
HETATM    7  C   UNK N   1      51.104  52.063  58.769  0.00  0.00     0.018 A 
HETATM    8  C   UNK N   1      49.941  52.817  58.997  0.00  0.00    -0.029 A 
HETATM    9  C   UNK N   1      49.396  52.917  60.414  0.00  0.00     0.085 C 
HETATM   10  C   UNK N   1      48.636  54.211  60.647  0.00  0.00    -0.030 A 
HETATM   11  C   UNK N   1      47.930  54.825  59.592  0.00  0.00     0.055 A 
HETATM   12  C   UNK N   1      47.155  55.981  59.854  0.00  0.00     0.080 A 
HETATM   13  C   UNK N   1      47.117  56.518  61.149  0.00  0.00     0.037 A 
HETATM   14  C   UNK N   1      47.842  55.922  62.179  0.00  0.00     0.003 A 
HETATM   15  C   UNK N   1      48.592  54.774  61.934  0.00  0.00     0.009 A 
ENDROOT
BRANCH   9  16
HETATM   16  C   UNK N   1      48.496  51.671  60.701  0.00  0.00     0.166 C 
HETATM   17  O   UNK N   1      47.170  52.113  60.962  0.00  0.00    -0.372 OA
HETATM   18  C   UNK N   1      46.260  51.025  61.034  0.00  0.00     0.176 C 
HETATM   19  C   UNK N   1      46.614  50.126  62.250  0.00  0.00     0.180 C 
HETATM   20  C   UNK N   1      48.060  49.619  62.128  0.00  0.00     0.180 C 
HETATM   21  C   UNK N   1      49.000  50.818  61.898  0.00  0.00     0.179 C 
BRANCH  18  22
HETATM   22  C   UNK N   1      44.847  51.619  61.156  0.00  0.00     0.198 C 
BRANCH  22  23
HETATM   23  O   UNK N   1      43.864  50.682  60.806  0.00  0.00    -0.398 OA
HETATM   24  H   UNK N   1      44.053  50.394  59.875  0.00  0.00     0.209 HD
ENDBRANCH  22  23
ENDBRANCH  18  22
BRANCH  19  25
HETATM   25  O   UNK N   1      45.733  49.037  62.380  0.00  0.00    -0.390 OA
HETATM   26  H   UNK N   1      44.809  49.383  62.267  0.00  0.00     0.210 HD
ENDBRANCH  19  25
BRANCH  20  27
HETATM   27  O   UNK N   1      48.404  48.931  63.304  0.00  0.00    -0.390 OA
HETATM   28  H   UNK N   1      48.633  48.001  63.046  0.00  0.00     0.210 HD
ENDBRANCH  20  27
BRANCH  21  29
HETATM   29  O   UNK N   1      50.322  50.382  61.696  0.00  0.00    -0.390 OA
HETATM   30  H   UNK N   1      50.847  50.640  62.499  0.00  0.00     0.210 HD
ENDBRANCH  21  29
ENDBRANCH   9  16
BRANCH   4  31
HETATM   31  O   UNK N   1      49.250  53.825  55.484  0.00  0.00    -0.360 OA
HETATM   32  H   UNK N   1      49.164  53.415  54.621  0.00  0.00     0.217 HD
ENDBRANCH   4  31
BRANCH   6  33
HETATM   33  C   UNK N   1      52.907  51.173  57.243  0.00  0.00     0.203 C 
BRANCH  33  34
HETATM   34  O   UNK N   1      53.129  51.037  55.867  0.00  0.00    -0.396 OA
HETATM   35  H   UNK N   1      52.249  50.817  55.465  0.00  0.00     0.209 HD
ENDBRANCH  33  34
ENDBRANCH   6  33
BRANCH  12  36
HETATM   36  O   UNK N   1      46.474  56.590  58.859  0.00  0.00    -0.360 OA
HETATM   37  H   UNK N   1      46.904  57.196  58.241  0.00  0.00     0.217 HD
ENDBRANCH  12  36
TORSDOF 10
ENDMDL
