MODEL 1
REMARK VINA RESULT:      -7.6      0.000      0.000
REMARK  5 active torsions:
REMARK  status: ('A' for Active; 'I' for Inactive)
REMARK    1  A    between atoms: C_5  and  O_6 
REMARK    2  A    between atoms: C_9  and  O_11 
REMARK    3  A    between atoms: C_13  and  O_14 
REMARK    4  A    between atoms: C_19  and  O_20 
REMARK    5  A    between atoms: C_22  and  O_23 
ROOT
HETATM    1  O   UNK N   1      42.813  46.783  50.445  0.00  0.00    -0.292 OA
HETATM    2  C   UNK N   1      42.064  45.984  49.896  0.00  0.00     0.165 C 
HETATM    3  C   UNK N   1      41.614  46.219  48.508  0.00  0.00     0.024 A 
HETATM    4  C   UNK N   1      40.566  45.440  47.962  0.00  0.00     0.018 A 
HETATM    5  C   UNK N   1      40.215  45.622  46.605  0.00  0.00     0.078 A 
HETATM    6  C   UNK N   1      40.863  46.598  45.834  0.00  0.00     0.074 A 
HETATM    7  C   UNK N   1      41.867  47.399  46.389  0.00  0.00     0.071 A 
HETATM    8  C   UNK N   1      42.239  47.199  47.729  0.00  0.00     0.052 A 
HETATM    9  C   UNK N   1      39.830  44.412  48.822  0.00  0.00     0.160 C 
HETATM   10  C   UNK N   1      40.099  44.574  50.350  0.00  0.00     0.033 C 
HETATM   11  C   UNK N   1      41.602  44.742  50.615  0.00  0.00     0.070 C 
HETATM   12  C   UNK N   1      41.902  44.822  52.129  0.00  0.00     0.053 C 
HETATM   13  C   UNK N   1      41.369  43.587  52.883  0.00  0.00     0.081 C 
HETATM   14  C   UNK N   1      39.836  43.468  52.634  0.00  0.00     0.152 C 
HETATM   15  C   UNK N   1      39.541  43.361  51.125  0.00  0.00     0.043 C 
HETATM   16  C   UNK N   1      41.667  43.762  54.386  0.00  0.00     0.049 C 
ENDROOT
BRANCH  13  17
HETATM   17  O   UNK N   1      42.045  42.448  52.399  0.00  0.00    -0.388 OA
HETATM   18  H   UNK N   1      42.450  41.975  53.170  0.00  0.00     0.210 HD
ENDBRANCH  13  17
BRANCH  14  19
HETATM   19  O   UNK N   1      39.330  42.339  53.300  0.00  0.00    -0.393 OA
HETATM   20  H   UNK N   1      38.709  41.883  52.675  0.00  0.00     0.210 HD
ENDBRANCH  14  19
BRANCH   9  21
HETATM   21  O   UNK N   1      38.444  44.539  48.611  0.00  0.00    -0.390 OA
HETATM   22  H   UNK N   1      38.068  43.621  48.572  0.00  0.00     0.210 HD
ENDBRANCH   9  21
BRANCH   5  23
HETATM   23  O   UNK N   1      39.246  44.864  46.047  0.00  0.00    -0.360 OA
HETATM   24  H   UNK N   1      38.471  44.574  46.550  0.00  0.00     0.217 HD
ENDBRANCH   5  23
BRANCH   7  25
HETATM   25  O   UNK N   1      42.462  48.340  45.610  0.00  0.00    -0.356 OA
HETATM   26  C   UNK N   1      43.495  49.159  46.021  0.00  0.00     0.210 C 
ENDBRANCH   7  25
TORSDOF 5
ENDMDL
MODEL 2
REMARK VINA RESULT:      -7.3      1.335      3.139
REMARK  5 active torsions:
REMARK  status: ('A' for Active; 'I' for Inactive)
REMARK    1  A    between atoms: C_5  and  O_6 
REMARK    2  A    between atoms: C_9  and  O_11 
REMARK    3  A    between atoms: C_13  and  O_14 
REMARK    4  A    between atoms: C_19  and  O_20 
REMARK    5  A    between atoms: C_22  and  O_23 
ROOT
HETATM    1  O   UNK N   1      38.899  44.177  48.785  0.00  0.00    -0.292 OA
HETATM    2  C   UNK N   1      39.759  44.930  49.228  0.00  0.00     0.165 C 
HETATM    3  C   UNK N   1      40.418  45.911  48.341  0.00  0.00     0.024 A 
HETATM    4  C   UNK N   1      41.570  46.604  48.784  0.00  0.00     0.018 A 
HETATM    5  C   UNK N   1      42.128  47.602  47.954  0.00  0.00     0.078 A 
HETATM    6  C   UNK N   1      41.575  47.858  46.691  0.00  0.00     0.074 A 
HETATM    7  C   UNK N   1      40.464  47.141  46.236  0.00  0.00     0.071 A 
HETATM    8  C   UNK N   1      39.888  46.169  47.072  0.00  0.00     0.052 A 
HETATM    9  C   UNK N   1      42.198  46.283  50.141  0.00  0.00     0.160 C 
HETATM   10  C   UNK N   1      41.679  44.953  50.767  0.00  0.00     0.033 C 
HETATM   11  C   UNK N   1      40.147  44.882  50.684  0.00  0.00     0.070 C 
HETATM   12  C   UNK N   1      39.604  43.609  51.372  0.00  0.00     0.053 C 
HETATM   13  C   UNK N   1      40.056  43.517  52.843  0.00  0.00     0.081 C 
HETATM   14  C   UNK N   1      41.613  43.544  52.893  0.00  0.00     0.152 C 
HETATM   15  C   UNK N   1      42.151  44.827  52.232  0.00  0.00     0.043 C 
HETATM   16  C   UNK N   1      39.512  42.204  53.443  0.00  0.00     0.049 C 
ENDROOT
BRANCH  13  17
HETATM   17  O   UNK N   1      39.513  44.614  53.542  0.00  0.00    -0.388 OA
HETATM   18  H   UNK N   1      39.524  44.403  54.511  0.00  0.00     0.210 HD
ENDBRANCH  13  17
BRANCH  14  19
HETATM   19  O   UNK N   1      42.049  43.476  54.228  0.00  0.00    -0.393 OA
HETATM   20  H   UNK N   1      41.302  43.100  54.762  0.00  0.00     0.210 HD
ENDBRANCH  14  19
BRANCH   9  21
HETATM   21  O   UNK N   1      43.593  46.177  49.992  0.00  0.00    -0.390 OA
HETATM   22  H   UNK N   1      43.809  45.209  49.934  0.00  0.00     0.210 HD
ENDBRANCH   9  21
BRANCH   5  23
HETATM   23  O   UNK N   1      43.205  48.306  48.369  0.00  0.00    -0.360 OA
HETATM   24  H   UNK N   1      43.711  48.868  47.764  0.00  0.00     0.217 HD
ENDBRANCH   5  23
BRANCH   7  25
HETATM   25  O   UNK N   1      39.966  47.414  45.002  0.00  0.00    -0.356 OA
HETATM   26  C   UNK N   1      39.341  48.596  44.654  0.00  0.00     0.210 C 
ENDBRANCH   7  25
TORSDOF 5
ENDMDL
MODEL 3
REMARK VINA RESULT:      -6.4      2.443      7.000
REMARK  5 active torsions:
REMARK  status: ('A' for Active; 'I' for Inactive)
REMARK    1  A    between atoms: C_5  and  O_6 
REMARK    2  A    between atoms: C_9  and  O_11 
REMARK    3  A    between atoms: C_13  and  O_14 
REMARK    4  A    between atoms: C_19  and  O_20 
REMARK    5  A    between atoms: C_22  and  O_23 
ROOT
HETATM    1  O   UNK N   1      42.458  48.359  47.357  0.00  0.00    -0.292 OA
HETATM    2  C   UNK N   1      41.323  47.898  47.339  0.00  0.00     0.165 C 
HETATM    3  C   UNK N   1      40.978  46.737  48.185  0.00  0.00     0.024 A 
HETATM    4  C   UNK N   1      39.753  46.056  47.987  0.00  0.00     0.018 A 
HETATM    5  C   UNK N   1      39.405  45.006  48.867  0.00  0.00     0.078 A 
HETATM    6  C   UNK N   1      40.289  44.617  49.884  0.00  0.00     0.074 A 
HETATM    7  C   UNK N   1      41.519  45.262  50.050  0.00  0.00     0.071 A 
HETATM    8  C   UNK N   1      41.854  46.327  49.196  0.00  0.00     0.052 A 
HETATM    9  C   UNK N   1      38.817  46.452  46.844  0.00  0.00     0.160 C 
HETATM   10  C   UNK N   1      39.490  47.376  45.782  0.00  0.00     0.033 C 
HETATM   11  C   UNK N   1      40.255  48.515  46.470  0.00  0.00     0.070 C 
HETATM   12  C   UNK N   1      40.863  49.491  45.437  0.00  0.00     0.053 C 
HETATM   13  C   UNK N   1      39.786  50.072  44.498  0.00  0.00     0.081 C 
HETATM   14  C   UNK N   1      39.058  48.897  43.780  0.00  0.00     0.152 C 
HETATM   15  C   UNK N   1      38.430  47.940  44.812  0.00  0.00     0.043 C 
HETATM   16  C   UNK N   1      40.474  50.997  43.475  0.00  0.00     0.049 C 
ENDROOT
BRANCH  13  17
HETATM   17  O   UNK N   1      38.880  50.822  45.276  0.00  0.00    -0.388 OA
HETATM   18  H   UNK N   1      38.658  50.298  46.088  0.00  0.00     0.210 HD
ENDBRANCH  13  17
BRANCH  14  19
HETATM   19  O   UNK N   1      38.060  49.402  42.929  0.00  0.00    -0.393 OA
HETATM   20  H   UNK N   1      37.219  48.923  43.146  0.00  0.00     0.210 HD
ENDBRANCH  14  19
BRANCH   9  21
HETATM   21  O   UNK N   1      38.372  45.290  46.187  0.00  0.00    -0.390 OA
HETATM   22  H   UNK N   1      39.178  44.763  45.942  0.00  0.00     0.210 HD
ENDBRANCH   9  21
BRANCH   5  23
HETATM   23  O   UNK N   1      38.224  44.364  48.725  0.00  0.00    -0.360 OA
HETATM   24  H   UNK N   1      37.903  43.733  49.386  0.00  0.00     0.217 HD
ENDBRANCH   5  23
BRANCH   7  25
HETATM   25  O   UNK N   1      42.349  44.847  51.042  0.00  0.00    -0.356 OA
HETATM   26  C   UNK N   1      42.015  44.819  52.382  0.00  0.00     0.210 C 
ENDBRANCH   7  25
TORSDOF 5
ENDMDL
MODEL 4
REMARK VINA RESULT:      -6.3      1.997      3.197
REMARK  5 active torsions:
REMARK  status: ('A' for Active; 'I' for Inactive)
REMARK    1  A    between atoms: C_5  and  O_6 
REMARK    2  A    between atoms: C_9  and  O_11 
REMARK    3  A    between atoms: C_13  and  O_14 
REMARK    4  A    between atoms: C_19  and  O_20 
REMARK    5  A    between atoms: C_22  and  O_23 
ROOT
HETATM    1  O   UNK N   1      41.644  42.259  48.660  0.00  0.00    -0.292 OA
HETATM    2  C   UNK N   1      41.472  43.467  48.772  0.00  0.00     0.165 C 
HETATM    3  C   UNK N   1      41.548  44.343  47.585  0.00  0.00     0.024 A 
HETATM    4  C   UNK N   1      41.595  45.748  47.744  0.00  0.00     0.018 A 
HETATM    5  C   UNK N   1      41.577  46.567  46.592  0.00  0.00     0.078 A 
HETATM    6  C   UNK N   1      41.566  45.987  45.315  0.00  0.00     0.074 A 
HETATM    7  C   UNK N   1      41.566  44.597  45.160  0.00  0.00     0.071 A 
HETATM    8  C   UNK N   1      41.553  43.780  46.304  0.00  0.00     0.052 A 
HETATM    9  C   UNK N   1      41.659  46.373  49.139  0.00  0.00     0.160 C 
HETATM   10  C   UNK N   1      42.011  45.350  50.262  0.00  0.00     0.033 C 
HETATM   11  C   UNK N   1      41.163  44.079  50.115  0.00  0.00     0.070 C 
HETATM   12  C   UNK N   1      41.436  43.083  51.265  0.00  0.00     0.053 C 
HETATM   13  C   UNK N   1      41.190  43.724  52.646  0.00  0.00     0.081 C 
HETATM   14  C   UNK N   1      42.096  44.983  52.785  0.00  0.00     0.152 C 
HETATM   15  C   UNK N   1      41.803  45.986  51.653  0.00  0.00     0.043 C 
HETATM   16  C   UNK N   1      41.524  42.685  53.737  0.00  0.00     0.049 C 
ENDROOT
BRANCH  13  17
HETATM   17  O   UNK N   1      39.827  44.076  52.734  0.00  0.00    -0.388 OA
HETATM   18  H   UNK N   1      39.313  43.484  52.127  0.00  0.00     0.210 HD
ENDBRANCH  13  17
BRANCH  14  19
HETATM   19  O   UNK N   1      41.878  45.594  54.032  0.00  0.00    -0.393 OA
HETATM   20  H   UNK N   1      42.419  46.425  54.050  0.00  0.00     0.210 HD
ENDBRANCH  14  19
BRANCH   9  21
HETATM   21  O   UNK N   1      42.639  47.383  49.150  0.00  0.00    -0.390 OA
HETATM   22  H   UNK N   1      43.200  47.239  49.957  0.00  0.00     0.210 HD
ENDBRANCH   9  21
BRANCH   5  23
HETATM   23  O   UNK N   1      41.582  47.913  46.716  0.00  0.00    -0.360 OA
HETATM   24  H   UNK N   1      40.770  48.413  46.885  0.00  0.00     0.217 HD
ENDBRANCH   5  23
BRANCH   7  25
HETATM   25  O   UNK N   1      41.565  44.077  43.905  0.00  0.00    -0.356 OA
HETATM   26  C   UNK N   1      42.327  44.556  42.857  0.00  0.00     0.210 C 
ENDBRANCH   7  25
TORSDOF 5
ENDMDL
MODEL 5
REMARK VINA RESULT:      -6.1     13.132     16.015
REMARK  5 active torsions:
REMARK  status: ('A' for Active; 'I' for Inactive)
REMARK    1  A    between atoms: C_5  and  O_6 
REMARK    2  A    between atoms: C_9  and  O_11 
REMARK    3  A    between atoms: C_13  and  O_14 
REMARK    4  A    between atoms: C_19  and  O_20 
REMARK    5  A    between atoms: C_22  and  O_23 
ROOT
HETATM    1  O   UNK N   1      30.490  56.139  42.312  0.00  0.00    -0.292 OA
HETATM    2  C   UNK N   1      30.595  54.926  42.445  0.00  0.00     0.165 C 
HETATM    3  C   UNK N   1      31.659  54.362  43.302  0.00  0.00     0.024 A 
HETATM    4  C   UNK N   1      31.937  52.974  43.264  0.00  0.00     0.018 A 
HETATM    5  C   UNK N   1      32.897  52.445  44.157  0.00  0.00     0.078 A 
HETATM    6  C   UNK N   1      33.595  53.296  45.026  0.00  0.00     0.074 A 
HETATM    7  C   UNK N   1      33.352  54.674  45.029  0.00  0.00     0.071 A 
HETATM    8  C   UNK N   1      32.376  55.198  44.164  0.00  0.00     0.052 A 
HETATM    9  C   UNK N   1      31.208  52.060  42.279  0.00  0.00     0.160 C 
HETATM   10  C   UNK N   1      30.451  52.835  41.156  0.00  0.00     0.033 C 
HETATM   11  C   UNK N   1      29.636  53.989  41.756  0.00  0.00     0.070 C 
HETATM   12  C   UNK N   1      28.813  54.721  40.672  0.00  0.00     0.053 C 
HETATM   13  C   UNK N   1      27.880  53.755  39.914  0.00  0.00     0.081 C 
HETATM   14  C   UNK N   1      28.738  52.622  39.278  0.00  0.00     0.152 C 
HETATM   15  C   UNK N   1      29.537  51.876  40.364  0.00  0.00     0.043 C 
HETATM   16  C   UNK N   1      27.129  54.550  38.827  0.00  0.00     0.049 C 
ENDROOT
BRANCH  13  17
HETATM   17  O   UNK N   1      26.952  53.224  40.834  0.00  0.00    -0.388 OA
HETATM   18  H   UNK N   1      26.577  52.389  40.451  0.00  0.00     0.210 HD
ENDBRANCH  13  17
BRANCH  14  19
HETATM   19  O   UNK N   1      27.906  51.719  38.593  0.00  0.00    -0.393 OA
HETATM   20  H   UNK N   1      27.011  51.765  39.018  0.00  0.00     0.210 HD
ENDBRANCH  14  19
BRANCH   9  21
HETATM   21  O   UNK N   1      32.141  51.206  41.662  0.00  0.00    -0.390 OA
HETATM   22  H   UNK N   1      31.752  50.925  40.793  0.00  0.00     0.210 HD
ENDBRANCH   9  21
BRANCH   5  23
HETATM   23  O   UNK N   1      33.153  51.118  44.170  0.00  0.00    -0.360 OA
HETATM   24  H   UNK N   1      33.639  50.699  44.895  0.00  0.00     0.217 HD
ENDBRANCH   5  23
BRANCH   7  25
HETATM   25  O   UNK N   1      34.058  55.463  45.880  0.00  0.00    -0.356 OA
HETATM   26  C   UNK N   1      34.176  56.834  45.761  0.00  0.00     0.210 C 
ENDBRANCH   7  25
TORSDOF 5
ENDMDL
MODEL 6
REMARK VINA RESULT:      -5.6     12.664     15.792
REMARK  5 active torsions:
REMARK  status: ('A' for Active; 'I' for Inactive)
REMARK    1  A    between atoms: C_5  and  O_6 
REMARK    2  A    between atoms: C_9  and  O_11 
REMARK    3  A    between atoms: C_13  and  O_14 
REMARK    4  A    between atoms: C_19  and  O_20 
REMARK    5  A    between atoms: C_22  and  O_23 
ROOT
HETATM    1  O   UNK N   1      30.281  51.742  40.642  0.00  0.00    -0.292 OA
HETATM    2  C   UNK N   1      30.858  52.487  41.425  0.00  0.00     0.165 C 
HETATM    3  C   UNK N   1      31.741  51.928  42.470  0.00  0.00     0.024 A 
HETATM    4  C   UNK N   1      32.209  52.757  43.518  0.00  0.00     0.018 A 
HETATM    5  C   UNK N   1      33.124  52.223  44.454  0.00  0.00     0.078 A 
HETATM    6  C   UNK N   1      33.514  50.878  44.370  0.00  0.00     0.074 A 
HETATM    7  C   UNK N   1      33.014  50.049  43.360  0.00  0.00     0.071 A 
HETATM    8  C   UNK N   1      32.129  50.586  42.410  0.00  0.00     0.052 A 
HETATM    9  C   UNK N   1      31.739  54.208  43.634  0.00  0.00     0.160 C 
HETATM   10  C   UNK N   1      30.498  54.531  42.747  0.00  0.00     0.033 C 
HETATM   11  C   UNK N   1      30.695  53.983  41.327  0.00  0.00     0.070 C 
HETATM   12  C   UNK N   1      29.512  54.362  40.407  0.00  0.00     0.053 C 
HETATM   13  C   UNK N   1      29.294  55.888  40.357  0.00  0.00     0.081 C 
HETATM   14  C   UNK N   1      29.051  56.409  41.805  0.00  0.00     0.152 C 
HETATM   15  C   UNK N   1      30.243  56.053  42.713  0.00  0.00     0.043 C 
HETATM   16  C   UNK N   1      28.075  56.181  39.458  0.00  0.00     0.049 C 
ENDROOT
BRANCH  13  17
HETATM   17  O   UNK N   1      30.444  56.481  39.798  0.00  0.00    -0.388 OA
HETATM   18  H   UNK N   1      30.170  57.309  39.326  0.00  0.00     0.210 HD
ENDBRANCH  13  17
BRANCH  14  19
HETATM   19  O   UNK N   1      28.863  57.802  41.787  0.00  0.00    -0.393 OA
HETATM   20  H   UNK N   1      28.553  58.044  40.876  0.00  0.00     0.210 HD
ENDBRANCH  14  19
BRANCH   9  21
HETATM   21  O   UNK N   1      31.399  54.479  44.972  0.00  0.00    -0.390 OA
HETATM   22  H   UNK N   1      30.569  53.972  45.173  0.00  0.00     0.210 HD
ENDBRANCH   9  21
BRANCH   5  23
HETATM   23  O   UNK N   1      33.617  53.002  45.442  0.00  0.00    -0.360 OA
HETATM   24  H   UNK N   1      33.268  53.889  45.615  0.00  0.00     0.217 HD
ENDBRANCH   5  23
BRANCH   7  25
HETATM   25  O   UNK N   1      33.411  48.750  43.321  0.00  0.00    -0.356 OA
HETATM   26  C   UNK N   1      34.713  48.335  43.123  0.00  0.00     0.210 C 
ENDBRANCH   7  25
TORSDOF 5
ENDMDL
MODEL 7
REMARK VINA RESULT:      -5.5      1.785      2.051
REMARK  5 active torsions:
REMARK  status: ('A' for Active; 'I' for Inactive)
REMARK    1  A    between atoms: C_5  and  O_6 
REMARK    2  A    between atoms: C_9  and  O_11 
REMARK    3  A    between atoms: C_13  and  O_14 
REMARK    4  A    between atoms: C_19  and  O_20 
REMARK    5  A    between atoms: C_22  and  O_23 
ROOT
HETATM    1  O   UNK N   1      42.461  48.137  49.084  0.00  0.00    -0.292 OA
HETATM    2  C   UNK N   1      41.660  47.316  48.653  0.00  0.00     0.165 C 
HETATM    3  C   UNK N   1      40.876  47.611  47.437  0.00  0.00     0.024 A 
HETATM    4  C   UNK N   1      39.785  46.781  47.079  0.00  0.00     0.018 A 
HETATM    5  C   UNK N   1      39.107  47.030  45.864  0.00  0.00     0.078 A 
HETATM    6  C   UNK N   1      39.481  48.115  45.058  0.00  0.00     0.074 A 
HETATM    7  C   UNK N   1      40.529  48.960  45.435  0.00  0.00     0.071 A 
HETATM    8  C   UNK N   1      41.226  48.697  46.628  0.00  0.00     0.052 A 
HETATM    9  C   UNK N   1      39.351  45.632  47.989  0.00  0.00     0.160 C 
HETATM   10  C   UNK N   1      39.966  45.705  49.420  0.00  0.00     0.033 C 
HETATM   11  C   UNK N   1      41.473  45.988  49.343  0.00  0.00     0.070 C 
HETATM   12  C   UNK N   1      42.120  45.985  50.746  0.00  0.00     0.053 C 
HETATM   13  C   UNK N   1      41.872  44.654  51.486  0.00  0.00     0.081 C 
HETATM   14  C   UNK N   1      40.337  44.416  51.590  0.00  0.00     0.152 C 
HETATM   15  C   UNK N   1      39.698  44.393  50.189  0.00  0.00     0.043 C 
HETATM   16  C   UNK N   1      42.509  44.746  52.888  0.00  0.00     0.049 C 
ENDROOT
BRANCH  13  17
HETATM   17  O   UNK N   1      42.491  43.620  50.755  0.00  0.00    -0.388 OA
HETATM   18  H   UNK N   1      42.870  44.008  49.925  0.00  0.00     0.210 HD
ENDBRANCH  13  17
BRANCH  14  19
HETATM   19  O   UNK N   1      40.086  43.200  52.249  0.00  0.00    -0.393 OA
HETATM   20  H   UNK N   1      40.900  42.975  52.770  0.00  0.00     0.210 HD
ENDBRANCH  14  19
BRANCH   9  21
HETATM   21  O   UNK N   1      37.949  45.648  48.119  0.00  0.00    -0.390 OA
HETATM   22  H   UNK N   1      37.694  46.554  48.435  0.00  0.00     0.210 HD
ENDBRANCH   9  21
BRANCH   5  23
HETATM   23  O   UNK N   1      38.088  46.230  45.480  0.00  0.00    -0.360 OA
HETATM   24  H   UNK N   1      37.702  45.572  46.077  0.00  0.00     0.217 HD
ENDBRANCH   5  23
BRANCH   7  25
HETATM   25  O   UNK N   1      40.853  50.005  44.629  0.00  0.00    -0.356 OA
HETATM   26  C   UNK N   1      40.050  50.490  43.615  0.00  0.00     0.210 C 
ENDBRANCH   7  25
TORSDOF 5
ENDMDL
MODEL 8
REMARK VINA RESULT:      -5.4     13.836     17.151
REMARK  5 active torsions:
REMARK  status: ('A' for Active; 'I' for Inactive)
REMARK    1  A    between atoms: C_5  and  O_6 
REMARK    2  A    between atoms: C_9  and  O_11 
REMARK    3  A    between atoms: C_13  and  O_14 
REMARK    4  A    between atoms: C_19  and  O_20 
REMARK    5  A    between atoms: C_22  and  O_23 
ROOT
HETATM    1  O   UNK N   1      30.283  51.633  40.465  0.00  0.00    -0.292 OA
HETATM    2  C   UNK N   1      30.630  52.762  40.791  0.00  0.00     0.165 C 
HETATM    3  C   UNK N   1      31.305  52.989  42.085  0.00  0.00     0.024 A 
HETATM    4  C   UNK N   1      31.484  54.307  42.569  0.00  0.00     0.018 A 
HETATM    5  C   UNK N   1      32.212  54.503  43.765  0.00  0.00     0.078 A 
HETATM    6  C   UNK N   1      32.701  53.400  44.481  0.00  0.00     0.074 A 
HETATM    7  C   UNK N   1      32.483  52.096  44.025  0.00  0.00     0.071 A 
HETATM    8  C   UNK N   1      31.786  51.900  42.820  0.00  0.00     0.052 A 
HETATM    9  C   UNK N   1      30.905  55.501  41.809  0.00  0.00     0.160 C 
HETATM   10  C   UNK N   1      29.861  55.099  40.722  0.00  0.00     0.033 C 
HETATM   11  C   UNK N   1      30.392  53.935  39.873  0.00  0.00     0.070 C 
HETATM   12  C   UNK N   1      29.409  53.572  38.737  0.00  0.00     0.053 C 
HETATM   13  C   UNK N   1      29.105  54.786  37.836  0.00  0.00     0.081 C 
HETATM   14  C   UNK N   1      28.526  55.933  38.716  0.00  0.00     0.152 C 
HETATM   15  C   UNK N   1      29.519  56.311  39.831  0.00  0.00     0.043 C 
HETATM   16  C   UNK N   1      28.089  54.355  36.758  0.00  0.00     0.049 C 
ENDROOT
BRANCH  13  17
HETATM   17  O   UNK N   1      30.306  55.188  37.216  0.00  0.00    -0.388 OA
HETATM   18  H   UNK N   1      30.767  54.379  36.876  0.00  0.00     0.210 HD
ENDBRANCH  13  17
BRANCH  14  19
HETATM   19  O   UNK N   1      28.254  57.057  37.917  0.00  0.00    -0.393 OA
HETATM   20  H   UNK N   1      28.129  56.734  36.987  0.00  0.00     0.210 HD
ENDBRANCH  14  19
BRANCH   9  21
HETATM   21  O   UNK N   1      30.271  56.366  42.720  0.00  0.00    -0.390 OA
HETATM   22  H   UNK N   1      29.490  55.878  43.094  0.00  0.00     0.210 HD
ENDBRANCH   9  21
BRANCH   5  23
HETATM   23  O   UNK N   1      32.432  55.753  44.229  0.00  0.00    -0.360 OA
HETATM   24  H   UNK N   1      33.207  56.268  43.961  0.00  0.00     0.217 HD
ENDBRANCH   5  23
BRANCH   7  25
HETATM   25  O   UNK N   1      32.965  51.056  44.755  0.00  0.00    -0.356 OA
HETATM   26  C   UNK N   1      32.826  49.726  44.410  0.00  0.00     0.210 C 
ENDBRANCH   7  25
TORSDOF 5
ENDMDL
MODEL 9
REMARK VINA RESULT:      -5.3      2.811      5.075
REMARK  5 active torsions:
REMARK  status: ('A' for Active; 'I' for Inactive)
REMARK    1  A    between atoms: C_5  and  O_6 
REMARK    2  A    between atoms: C_9  and  O_11 
REMARK    3  A    between atoms: C_13  and  O_14 
REMARK    4  A    between atoms: C_19  and  O_20 
REMARK    5  A    between atoms: C_22  and  O_23 
ROOT
HETATM    1  O   UNK N   1      37.855  45.877  46.063  0.00  0.00    -0.292 OA
HETATM    2  C   UNK N   1      38.818  46.601  46.286  0.00  0.00     0.165 C 
HETATM    3  C   UNK N   1      39.114  47.742  45.396  0.00  0.00     0.024 A 
HETATM    4  C   UNK N   1      40.350  48.423  45.504  0.00  0.00     0.018 A 
HETATM    5  C   UNK N   1      40.573  49.567  44.704  0.00  0.00     0.078 A 
HETATM    6  C   UNK N   1      39.601  49.982  43.783  0.00  0.00     0.074 A 
HETATM    7  C   UNK N   1      38.399  49.281  43.644  0.00  0.00     0.071 A 
HETATM    8  C   UNK N   1      38.162  48.161  44.461  0.00  0.00     0.052 A 
HETATM    9  C   UNK N   1      41.426  47.934  46.475  0.00  0.00     0.160 C 
HETATM   10  C   UNK N   1      41.165  46.496  47.019  0.00  0.00     0.033 C 
HETATM   11  C   UNK N   1      39.708  46.352  47.478  0.00  0.00     0.070 C 
HETATM   12  C   UNK N   1      39.446  44.960  48.096  0.00  0.00     0.053 C 
HETATM   13  C   UNK N   1      40.400  44.669  49.272  0.00  0.00     0.081 C 
HETATM   14  C   UNK N   1      41.870  44.776  48.766  0.00  0.00     0.152 C 
HETATM   15  C   UNK N   1      42.136  46.174  48.175  0.00  0.00     0.043 C 
HETATM   16  C   UNK N   1      40.107  43.251  49.804  0.00  0.00     0.049 C 
ENDROOT
BRANCH  13  17
HETATM   17  O   UNK N   1      40.150  45.614  50.289  0.00  0.00    -0.388 OA
HETATM   18  H   UNK N   1      39.177  45.799  50.308  0.00  0.00     0.210 HD
ENDBRANCH  13  17
BRANCH  14  19
HETATM   19  O   UNK N   1      42.759  44.529  49.826  0.00  0.00    -0.393 OA
HETATM   20  H   UNK N   1      43.480  45.208  49.768  0.00  0.00     0.210 HD
ENDBRANCH  14  19
BRANCH   9  21
HETATM   21  O   UNK N   1      42.673  47.931  45.822  0.00  0.00    -0.390 OA
HETATM   22  H   UNK N   1      43.131  48.779  46.060  0.00  0.00     0.210 HD
ENDBRANCH   9  21
BRANCH   5  23
HETATM   23  O   UNK N   1      41.728  50.259  44.816  0.00  0.00    -0.360 OA
HETATM   24  H   UNK N   1      41.754  51.224  44.744  0.00  0.00     0.217 HD
ENDBRANCH   5  23
BRANCH   7  25
HETATM   25  O   UNK N   1      37.488  49.712  42.733  0.00  0.00    -0.356 OA
HETATM   26  C   UNK N   1      36.149  49.918  43.000  0.00  0.00     0.210 C 
ENDBRANCH   7  25
TORSDOF 5
ENDMDL
