MODEL 1
REMARK VINA RESULT:      -6.8      0.000      0.000
REMARK  7 active torsions:
REMARK  status: ('A' for Active; 'I' for Inactive)
REMARK    1  A    between atoms: C_4  and  O_5 
REMARK    2  A    between atoms: C_8  and  O_9 
REMARK    3  A    between atoms: C_13  and  O_14 
REMARK    4  A    between atoms: C_17  and  O_18 
REMARK    5  A    between atoms: C_20  and  O_21 
REMARK    6  A    between atoms: C_23  and  O_24 
REMARK    7  A    between atoms: C_26  and  O_27 
ROOT
HETATM    1  O   UNK N   1      42.746  47.517  49.717  0.00  0.00    -0.292 OA
HETATM    2  C   UNK N   1      41.972  46.654  49.341  0.00  0.00     0.170 C 
HETATM    3  C   UNK N   1      41.449  45.626  50.289  0.00  0.00     0.052 A 
HETATM    4  C   UNK N   1      42.060  45.350  51.551  0.00  0.00     0.082 A 
HETATM    5  C   UNK N   1      41.522  44.363  52.375  0.00  0.00     0.074 A 
HETATM    6  C   UNK N   1      40.397  43.621  51.987  0.00  0.00     0.071 A 
HETATM    7  C   UNK N   1      39.794  43.887  50.758  0.00  0.00     0.047 A 
HETATM    8  C   UNK N   1      40.290  44.894  49.912  0.00  0.00    -0.010 A 
HETATM    9  C   UNK N   1      39.554  45.177  48.601  0.00  0.00     0.160 C 
HETATM   10  C   UNK N   1      39.948  46.531  47.945  0.00  0.00     0.065 C 
HETATM   11  C   UNK N   1      39.311  46.690  46.533  0.00  0.00     0.162 C 
HETATM   12  C   UNK N   1      39.719  48.049  45.889  0.00  0.00     0.109 C 
HETATM   13  C   UNK N   1      41.273  48.138  45.777  0.00  0.00     0.184 C 
HETATM   14  C   UNK N   1      41.928  47.960  47.169  0.00  0.00     0.162 C 
HETATM   15  C   UNK N   1      41.478  46.665  47.906  0.00  0.00     0.101 C 
HETATM   16  C   UNK N   1      39.064  48.178  44.498  0.00  0.00     0.051 C 
ENDROOT
BRANCH  12  17
HETATM   17  O   UNK N   1      39.230  49.078  46.723  0.00  0.00    -0.385 OA
HETATM   18  H   UNK N   1      38.844  48.669  47.540  0.00  0.00     0.210 HD
ENDBRANCH  12  17
BRANCH  11  19
HETATM   19  O   UNK N   1      39.592  45.596  45.689  0.00  0.00    -0.392 OA
HETATM   20  H   UNK N   1      40.240  44.995  46.131  0.00  0.00     0.210 HD
ENDBRANCH  11  19
BRANCH  13  21
HETATM   21  O   UNK N   1      41.631  49.389  45.238  0.00  0.00    -0.390 OA
HETATM   22  H   UNK N   1      41.682  49.290  44.252  0.00  0.00     0.210 HD
ENDBRANCH  13  21
BRANCH  14  23
HETATM   23  O   UNK N   1      43.331  47.991  47.057  0.00  0.00    -0.392 OA
HETATM   24  H   UNK N   1      43.702  47.945  47.978  0.00  0.00     0.210 HD
ENDBRANCH  14  23
BRANCH   9  25
HETATM   25  O   UNK N   1      38.159  45.136  48.785  0.00  0.00    -0.390 OA
HETATM   26  H   UNK N   1      37.873  46.025  49.120  0.00  0.00     0.210 HD
ENDBRANCH   9  25
BRANCH   4  27
HETATM   27  O   UNK N   1      43.168  45.981  52.004  0.00  0.00    -0.360 OA
HETATM   28  H   UNK N   1      43.657  46.673  51.550  0.00  0.00     0.217 HD
ENDBRANCH   4  27
BRANCH   6  29
HETATM   29  O   UNK N   1      39.870  42.649  52.778  0.00  0.00    -0.356 OA
HETATM   30  C   UNK N   1      39.470  42.833  54.087  0.00  0.00     0.210 C 
ENDBRANCH   6  29
TORSDOF 7
ENDMDL
MODEL 2
REMARK VINA RESULT:      -6.6      1.838      6.600
REMARK  7 active torsions:
REMARK  status: ('A' for Active; 'I' for Inactive)
REMARK    1  A    between atoms: C_4  and  O_5 
REMARK    2  A    between atoms: C_8  and  O_9 
REMARK    3  A    between atoms: C_13  and  O_14 
REMARK    4  A    between atoms: C_17  and  O_18 
REMARK    5  A    between atoms: C_20  and  O_21 
REMARK    6  A    between atoms: C_23  and  O_24 
REMARK    7  A    between atoms: C_26  and  O_27 
ROOT
HETATM    1  O   UNK N   1      42.771  48.193  46.687  0.00  0.00    -0.292 OA
HETATM    2  C   UNK N   1      41.579  47.949  46.766  0.00  0.00     0.170 C 
HETATM    3  C   UNK N   1      40.624  48.439  45.727  0.00  0.00     0.052 A 
HETATM    4  C   UNK N   1      40.946  49.486  44.809  0.00  0.00     0.082 A 
HETATM    5  C   UNK N   1      39.995  49.900  43.878  0.00  0.00     0.074 A 
HETATM    6  C   UNK N   1      38.721  49.318  43.827  0.00  0.00     0.071 A 
HETATM    7  C   UNK N   1      38.402  48.294  44.718  0.00  0.00     0.047 A 
HETATM    8  C   UNK N   1      39.342  47.830  45.654  0.00  0.00    -0.010 A 
HETATM    9  C   UNK N   1      38.953  46.667  46.568  0.00  0.00     0.160 C 
HETATM   10  C   UNK N   1      40.166  45.999  47.277  0.00  0.00     0.065 C 
HETATM   11  C   UNK N   1      39.707  44.945  48.327  0.00  0.00     0.162 C 
HETATM   12  C   UNK N   1      40.933  44.289  49.029  0.00  0.00     0.109 C 
HETATM   13  C   UNK N   1      41.794  45.387  49.729  0.00  0.00     0.184 C 
HETATM   14  C   UNK N   1      42.243  46.458  48.705  0.00  0.00     0.162 C 
HETATM   15  C   UNK N   1      41.066  47.078  47.898  0.00  0.00     0.101 C 
HETATM   16  C   UNK N   1      40.442  43.245  50.055  0.00  0.00     0.051 C 
ENDROOT
BRANCH  12  17
HETATM   17  O   UNK N   1      41.692  43.634  48.035  0.00  0.00    -0.385 OA
HETATM   18  H   UNK N   1      41.120  42.952  47.596  0.00  0.00     0.210 HD
ENDBRANCH  12  17
BRANCH  11  19
HETATM   19  O   UNK N   1      38.784  45.475  49.253  0.00  0.00    -0.392 OA
HETATM   20  H   UNK N   1      39.260  46.044  49.905  0.00  0.00     0.210 HD
ENDBRANCH  11  19
BRANCH  13  21
HETATM   21  O   UNK N   1      42.924  44.788  50.320  0.00  0.00    -0.390 OA
HETATM   22  H   UNK N   1      43.643  45.469  50.357  0.00  0.00     0.210 HD
ENDBRANCH  13  21
BRANCH  14  23
HETATM   23  O   UNK N   1      42.977  47.472  49.348  0.00  0.00    -0.392 OA
HETATM   24  H   UNK N   1      42.339  47.987  49.910  0.00  0.00     0.210 HD
ENDBRANCH  14  23
BRANCH   9  25
HETATM   25  O   UNK N   1      38.229  45.689  45.862  0.00  0.00    -0.390 OA
HETATM   26  H   UNK N   1      38.366  44.820  46.322  0.00  0.00     0.210 HD
ENDBRANCH   9  25
BRANCH   4  27
HETATM   27  O   UNK N   1      42.132  50.137  44.797  0.00  0.00    -0.360 OA
HETATM   28  H   UNK N   1      42.991  49.765  45.013  0.00  0.00     0.217 HD
ENDBRANCH   4  27
BRANCH   6  29
HETATM   29  O   UNK N   1      37.782  49.722  42.929  0.00  0.00    -0.356 OA
HETATM   30  C   UNK N   1      36.814  48.901  42.385  0.00  0.00     0.210 C 
ENDBRANCH   6  29
TORSDOF 7
ENDMDL
MODEL 3
REMARK VINA RESULT:      -5.5     11.383     14.906
REMARK  7 active torsions:
REMARK  status: ('A' for Active; 'I' for Inactive)
REMARK    1  A    between atoms: C_4  and  O_5 
REMARK    2  A    between atoms: C_8  and  O_9 
REMARK    3  A    between atoms: C_13  and  O_14 
REMARK    4  A    between atoms: C_17  and  O_18 
REMARK    5  A    between atoms: C_20  and  O_21 
REMARK    6  A    between atoms: C_23  and  O_24 
REMARK    7  A    between atoms: C_26  and  O_27 
ROOT
HETATM    1  O   UNK N   1      30.258  55.592  43.217  0.00  0.00    -0.292 OA
HETATM    2  C   UNK N   1      30.610  54.711  42.452  0.00  0.00     0.170 C 
HETATM    3  C   UNK N   1      31.339  53.507  42.952  0.00  0.00     0.052 A 
HETATM    4  C   UNK N   1      31.980  53.461  44.229  0.00  0.00     0.082 A 
HETATM    5  C   UNK N   1      32.655  52.306  44.618  0.00  0.00     0.074 A 
HETATM    6  C   UNK N   1      32.732  51.186  43.777  0.00  0.00     0.071 A 
HETATM    7  C   UNK N   1      32.107  51.224  42.531  0.00  0.00     0.047 A 
HETATM    8  C   UNK N   1      31.393  52.360  42.114  0.00  0.00    -0.010 A 
HETATM    9  C   UNK N   1      30.683  52.322  40.760  0.00  0.00     0.160 C 
HETATM   10  C   UNK N   1      29.632  53.454  40.575  0.00  0.00     0.065 C 
HETATM   11  C   UNK N   1      29.068  53.481  39.124  0.00  0.00     0.162 C 
HETATM   12  C   UNK N   1      28.021  54.622  38.956  0.00  0.00     0.109 C 
HETATM   13  C   UNK N   1      28.677  55.999  39.291  0.00  0.00     0.184 C 
HETATM   14  C   UNK N   1      29.264  55.985  40.724  0.00  0.00     0.162 C 
HETATM   15  C   UNK N   1      30.243  54.803  40.982  0.00  0.00     0.101 C 
HETATM   16  C   UNK N   1      27.477  54.615  37.511  0.00  0.00     0.051 C 
ENDROOT
BRANCH  12  17
HETATM   17  O   UNK N   1      26.959  54.359  39.847  0.00  0.00    -0.385 OA
HETATM   18  H   UNK N   1      26.957  53.391  40.064  0.00  0.00     0.210 HD
ENDBRANCH  12  17
BRANCH  11  19
HETATM   19  O   UNK N   1      30.088  53.548  38.151  0.00  0.00    -0.392 OA
HETATM   20  H   UNK N   1      30.674  52.756  38.232  0.00  0.00     0.210 HD
ENDBRANCH  11  19
BRANCH  13  21
HETATM   21  O   UNK N   1      27.709  57.016  39.181  0.00  0.00    -0.390 OA
HETATM   22  H   UNK N   1      27.001  56.694  38.566  0.00  0.00     0.210 HD
ENDBRANCH  13  21
BRANCH  14  23
HETATM   23  O   UNK N   1      29.898  57.210  41.004  0.00  0.00    -0.392 OA
HETATM   24  H   UNK N   1      30.796  57.000  41.376  0.00  0.00     0.210 HD
ENDBRANCH  14  23
BRANCH   9  25
HETATM   25  O   UNK N   1      30.067  51.075  40.546  0.00  0.00    -0.390 OA
HETATM   26  H   UNK N   1      29.139  51.245  40.236  0.00  0.00     0.210 HD
ENDBRANCH   9  25
BRANCH   4  27
HETATM   27  O   UNK N   1      31.996  54.497  45.099  0.00  0.00    -0.360 OA
HETATM   28  H   UNK N   1      32.120  54.441  46.051  0.00  0.00     0.217 HD
ENDBRANCH   4  27
BRANCH   6  29
HETATM   29  O   UNK N   1      33.398  50.058  44.143  0.00  0.00    -0.356 OA
HETATM   30  C   UNK N   1      33.525  48.931  43.354  0.00  0.00     0.210 C 
ENDBRANCH   6  29
TORSDOF 7
ENDMDL
MODEL 4
REMARK VINA RESULT:      -4.9     11.703     15.059
REMARK  7 active torsions:
REMARK  status: ('A' for Active; 'I' for Inactive)
REMARK    1  A    between atoms: C_4  and  O_5 
REMARK    2  A    between atoms: C_8  and  O_9 
REMARK    3  A    between atoms: C_13  and  O_14 
REMARK    4  A    between atoms: C_17  and  O_18 
REMARK    5  A    between atoms: C_20  and  O_21 
REMARK    6  A    between atoms: C_23  and  O_24 
REMARK    7  A    between atoms: C_26  and  O_27 
ROOT
HETATM    1  O   UNK N   1      31.348  53.700  43.280  0.00  0.00    -0.292 OA
HETATM    2  C   UNK N   1      31.042  53.235  42.196  0.00  0.00     0.170 C 
HETATM    3  C   UNK N   1      31.141  51.768  41.933  0.00  0.00     0.052 A 
HETATM    4  C   UNK N   1      31.909  50.883  42.751  0.00  0.00     0.082 A 
HETATM    5  C   UNK N   1      31.966  49.528  42.432  0.00  0.00     0.074 A 
HETATM    6  C   UNK N   1      31.294  49.011  41.316  0.00  0.00     0.071 A 
HETATM    7  C   UNK N   1      30.540  49.869  40.515  0.00  0.00     0.047 A 
HETATM    8  C   UNK N   1      30.436  51.237  40.820  0.00  0.00    -0.010 A 
HETATM    9  C   UNK N   1      29.551  52.118  39.936  0.00  0.00     0.160 C 
HETATM   10  C   UNK N   1      29.209  53.496  40.574  0.00  0.00     0.065 C 
HETATM   11  C   UNK N   1      28.461  54.421  39.570  0.00  0.00     0.162 C 
HETATM   12  C   UNK N   1      28.130  55.797  40.223  0.00  0.00     0.109 C 
HETATM   13  C   UNK N   1      29.446  56.490  40.697  0.00  0.00     0.184 C 
HETATM   14  C   UNK N   1      30.217  55.575  41.680  0.00  0.00     0.162 C 
HETATM   15  C   UNK N   1      30.488  54.149  41.118  0.00  0.00     0.101 C 
HETATM   16  C   UNK N   1      27.382  56.684  39.205  0.00  0.00     0.051 C 
ENDROOT
BRANCH  12  17
HETATM   17  O   UNK N   1      27.284  55.551  41.326  0.00  0.00    -0.385 OA
HETATM   18  H   UNK N   1      26.840  54.673  41.197  0.00  0.00     0.210 HD
ENDBRANCH  12  17
BRANCH  11  19
HETATM   19  O   UNK N   1      29.155  54.565  38.350  0.00  0.00    -0.392 OA
HETATM   20  H   UNK N   1      29.861  55.249  38.450  0.00  0.00     0.210 HD
ENDBRANCH  11  19
BRANCH  13  21
HETATM   21  O   UNK N   1      29.130  57.709  41.327  0.00  0.00    -0.390 OA
HETATM   22  H   UNK N   1      28.831  57.504  42.249  0.00  0.00     0.210 HD
ENDBRANCH  13  21
BRANCH  14  23
HETATM   23  O   UNK N   1      31.427  56.182  42.066  0.00  0.00    -0.392 OA
HETATM   24  H   UNK N   1      32.151  55.769  41.525  0.00  0.00     0.210 HD
ENDBRANCH  14  23
BRANCH   9  25
HETATM   25  O   UNK N   1      28.359  51.455  39.592  0.00  0.00    -0.390 OA
HETATM   26  H   UNK N   1      28.377  51.288  38.614  0.00  0.00     0.210 HD
ENDBRANCH   9  25
BRANCH   4  27
HETATM   27  O   UNK N   1      32.623  51.284  43.828  0.00  0.00    -0.360 OA
HETATM   28  H   UNK N   1      33.336  50.800  44.254  0.00  0.00     0.217 HD
ENDBRANCH   4  27
BRANCH   6  29
HETATM   29  O   UNK N   1      31.351  47.692  40.989  0.00  0.00    -0.356 OA
HETATM   30  C   UNK N   1      30.666  47.113  39.939  0.00  0.00     0.210 C 
ENDBRANCH   6  29
TORSDOF 7
ENDMDL
MODEL 5
REMARK VINA RESULT:      -4.9     13.140     16.040
REMARK  7 active torsions:
REMARK  status: ('A' for Active; 'I' for Inactive)
REMARK    1  A    between atoms: C_4  and  O_5 
REMARK    2  A    between atoms: C_8  and  O_9 
REMARK    3  A    between atoms: C_13  and  O_14 
REMARK    4  A    between atoms: C_17  and  O_18 
REMARK    5  A    between atoms: C_20  and  O_21 
REMARK    6  A    between atoms: C_23  and  O_24 
REMARK    7  A    between atoms: C_26  and  O_27 
ROOT
HETATM    1  O   UNK N   1      29.653  46.389  61.664  0.00  0.00    -0.292 OA
HETATM    2  C   UNK N   1      29.827  46.030  60.512  0.00  0.00     0.170 C 
HETATM    3  C   UNK N   1      29.920  47.025  59.403  0.00  0.00     0.052 A 
HETATM    4  C   UNK N   1      29.468  48.375  59.531  0.00  0.00     0.082 A 
HETATM    5  C   UNK N   1      29.575  49.241  58.444  0.00  0.00     0.074 A 
HETATM    6  C   UNK N   1      30.106  48.815  57.219  0.00  0.00     0.071 A 
HETATM    7  C   UNK N   1      30.551  47.500  57.088  0.00  0.00     0.047 A 
HETATM    8  C   UNK N   1      30.487  46.604  58.169  0.00  0.00    -0.010 A 
HETATM    9  C   UNK N   1      31.041  45.190  57.982  0.00  0.00     0.160 C 
HETATM   10  C   UNK N   1      31.266  44.427  59.320  0.00  0.00     0.065 C 
HETATM   11  C   UNK N   1      31.658  42.941  59.072  0.00  0.00     0.162 C 
HETATM   12  C   UNK N   1      31.876  42.192  60.421  0.00  0.00     0.109 C 
HETATM   13  C   UNK N   1      30.575  42.256  61.280  0.00  0.00     0.184 C 
HETATM   14  C   UNK N   1      30.154  43.727  61.519  0.00  0.00     0.162 C 
HETATM   15  C   UNK N   1      30.020  44.555  60.208  0.00  0.00     0.101 C 
HETATM   16  C   UNK N   1      32.272  40.727  60.139  0.00  0.00     0.051 C 
ENDROOT
BRANCH  12  17
HETATM   17  O   UNK N   1      32.938  42.832  61.096  0.00  0.00    -0.385 OA
HETATM   18  H   UNK N   1      32.628  43.093  62.001  0.00  0.00     0.210 HD
ENDBRANCH  12  17
BRANCH  11  19
HETATM   19  O   UNK N   1      30.739  42.274  58.235  0.00  0.00    -0.392 OA
HETATM   20  H   UNK N   1      30.839  42.601  57.308  0.00  0.00     0.210 HD
ENDBRANCH  11  19
BRANCH  13  21
HETATM   21  O   UNK N   1      30.798  41.616  62.515  0.00  0.00    -0.390 OA
HETATM   22  H   UNK N   1      31.013  42.316  63.183  0.00  0.00     0.210 HD
ENDBRANCH  13  21
BRANCH  14  23
HETATM   23  O   UNK N   1      28.953  43.780  62.251  0.00  0.00    -0.392 OA
HETATM   24  H   UNK N   1      29.123  43.347  63.130  0.00  0.00     0.210 HD
ENDBRANCH  14  23
BRANCH   9  25
HETATM   25  O   UNK N   1      32.242  45.210  57.249  0.00  0.00    -0.390 OA
HETATM   26  H   UNK N   1      32.471  44.272  57.019  0.00  0.00     0.210 HD
ENDBRANCH   9  25
BRANCH   4  27
HETATM   27  O   UNK N   1      28.908  48.877  60.655  0.00  0.00    -0.360 OA
HETATM   28  H   UNK N   1      28.881  48.454  61.518  0.00  0.00     0.217 HD
ENDBRANCH   4  27
BRANCH   6  29
HETATM   29  O   UNK N   1      30.204  49.649  56.149  0.00  0.00    -0.356 OA
HETATM   30  C   UNK N   1      29.162  50.399  55.641  0.00  0.00     0.210 C 
ENDBRANCH   6  29
TORSDOF 7
ENDMDL
MODEL 6
REMARK VINA RESULT:      -4.9     12.469     14.328
REMARK  7 active torsions:
REMARK  status: ('A' for Active; 'I' for Inactive)
REMARK    1  A    between atoms: C_4  and  O_5 
REMARK    2  A    between atoms: C_8  and  O_9 
REMARK    3  A    between atoms: C_13  and  O_14 
REMARK    4  A    between atoms: C_17  and  O_18 
REMARK    5  A    between atoms: C_20  and  O_21 
REMARK    6  A    between atoms: C_23  and  O_24 
REMARK    7  A    between atoms: C_26  and  O_27 
ROOT
HETATM    1  O   UNK N   1      32.392  43.313  56.357  0.00  0.00    -0.292 OA
HETATM    2  C   UNK N   1      31.633  42.608  57.000  0.00  0.00     0.170 C 
HETATM    3  C   UNK N   1      31.686  42.583  58.492  0.00  0.00     0.052 A 
HETATM    4  C   UNK N   1      32.806  43.065  59.238  0.00  0.00     0.082 A 
HETATM    5  C   UNK N   1      32.788  42.993  60.629  0.00  0.00     0.074 A 
HETATM    6  C   UNK N   1      31.697  42.446  61.319  0.00  0.00     0.071 A 
HETATM    7  C   UNK N   1      30.599  41.977  60.597  0.00  0.00     0.047 A 
HETATM    8  C   UNK N   1      30.568  42.057  59.194  0.00  0.00    -0.010 A 
HETATM    9  C   UNK N   1      29.314  41.576  58.462  0.00  0.00     0.160 C 
HETATM   10  C   UNK N   1      29.234  42.056  56.983  0.00  0.00     0.065 C 
HETATM   11  C   UNK N   1      28.039  41.398  56.232  0.00  0.00     0.162 C 
HETATM   12  C   UNK N   1      27.976  41.886  54.754  0.00  0.00     0.109 C 
HETATM   13  C   UNK N   1      29.311  41.540  54.023  0.00  0.00     0.184 C 
HETATM   14  C   UNK N   1      30.516  42.167  54.768  0.00  0.00     0.162 C 
HETATM   15  C   UNK N   1      30.573  41.795  56.278  0.00  0.00     0.101 C 
HETATM   16  C   UNK N   1      26.778  41.223  54.042  0.00  0.00     0.051 C 
ENDROOT
BRANCH  12  17
HETATM   17  O   UNK N   1      27.781  43.284  54.775  0.00  0.00    -0.385 OA
HETATM   18  H   UNK N   1      27.608  43.596  53.850  0.00  0.00     0.210 HD
ENDBRANCH  12  17
BRANCH  11  19
HETATM   19  O   UNK N   1      28.052  39.990  56.328  0.00  0.00    -0.392 OA
HETATM   20  H   UNK N   1      27.156  39.669  56.592  0.00  0.00     0.210 HD
ENDBRANCH  11  19
BRANCH  13  21
HETATM   21  O   UNK N   1      29.261  42.027  52.702  0.00  0.00    -0.390 OA
HETATM   22  H   UNK N   1      28.317  41.984  52.401  0.00  0.00     0.210 HD
ENDBRANCH  13  21
BRANCH  14  23
HETATM   23  O   UNK N   1      31.722  41.811  54.135  0.00  0.00    -0.392 OA
HETATM   24  H   UNK N   1      31.625  40.873  53.821  0.00  0.00     0.210 HD
ENDBRANCH  14  23
BRANCH   9  25
HETATM   25  O   UNK N   1      28.147  41.970  59.143  0.00  0.00    -0.390 OA
HETATM   26  H   UNK N   1      28.344  42.823  59.611  0.00  0.00     0.210 HD
ENDBRANCH   9  25
BRANCH   4  27
HETATM   27  O   UNK N   1      33.922  43.577  58.670  0.00  0.00    -0.360 OA
HETATM   28  H   UNK N   1      33.993  43.958  57.791  0.00  0.00     0.217 HD
ENDBRANCH   4  27
BRANCH   6  29
HETATM   29  O   UNK N   1      31.673  42.362  62.676  0.00  0.00    -0.356 OA
HETATM   30  C   UNK N   1      32.072  43.370  63.532  0.00  0.00     0.210 C 
ENDBRANCH   6  29
TORSDOF 7
ENDMDL
MODEL 7
REMARK VINA RESULT:      -4.8     12.935     15.444
REMARK  7 active torsions:
REMARK  status: ('A' for Active; 'I' for Inactive)
REMARK    1  A    between atoms: C_4  and  O_5 
REMARK    2  A    between atoms: C_8  and  O_9 
REMARK    3  A    between atoms: C_13  and  O_14 
REMARK    4  A    between atoms: C_17  and  O_18 
REMARK    5  A    between atoms: C_20  and  O_21 
REMARK    6  A    between atoms: C_23  and  O_24 
REMARK    7  A    between atoms: C_26  and  O_27 
ROOT
HETATM    1  O   UNK N   1      30.913  47.364  56.815  0.00  0.00    -0.292 OA
HETATM    2  C   UNK N   1      30.295  46.935  57.774  0.00  0.00     0.170 C 
HETATM    3  C   UNK N   1      30.768  45.727  58.515  0.00  0.00     0.052 A 
HETATM    4  C   UNK N   1      31.716  44.806  57.973  0.00  0.00     0.082 A 
HETATM    5  C   UNK N   1      32.097  43.692  58.720  0.00  0.00     0.074 A 
HETATM    6  C   UNK N   1      31.560  43.447  59.992  0.00  0.00     0.071 A 
HETATM    7  C   UNK N   1      30.636  44.344  60.528  0.00  0.00     0.047 A 
HETATM    8  C   UNK N   1      30.248  45.493  59.817  0.00  0.00    -0.010 A 
HETATM    9  C   UNK N   1      29.273  46.468  60.479  0.00  0.00     0.160 C 
HETATM   10  C   UNK N   1      29.214  47.859  59.784  0.00  0.00     0.065 C 
HETATM   11  C   UNK N   1      28.086  48.750  60.380  0.00  0.00     0.162 C 
HETATM   12  C   UNK N   1      28.039  50.137  59.671  0.00  0.00     0.109 C 
HETATM   13  C   UNK N   1      27.802  49.942  58.140  0.00  0.00     0.184 C 
HETATM   14  C   UNK N   1      28.904  49.040  57.532  0.00  0.00     0.162 C 
HETATM   15  C   UNK N   1      29.065  47.677  58.266  0.00  0.00     0.101 C 
HETATM   16  C   UNK N   1      26.917  50.996  60.291  0.00  0.00     0.051 C 
ENDROOT
BRANCH  12  17
HETATM   17  O   UNK N   1      29.280  50.771  59.896  0.00  0.00    -0.385 OA
HETATM   18  H   UNK N   1      29.716  50.349  60.681  0.00  0.00     0.210 HD
ENDBRANCH  12  17
BRANCH  11  19
HETATM   19  O   UNK N   1      26.830  48.106  60.372  0.00  0.00    -0.392 OA
HETATM   20  H   UNK N   1      26.653  47.740  59.472  0.00  0.00     0.210 HD
ENDBRANCH  11  19
BRANCH  13  21
HETATM   21  O   UNK N   1      27.809  51.198  57.504  0.00  0.00    -0.390 OA
HETATM   22  H   UNK N   1      28.406  51.134  56.714  0.00  0.00     0.210 HD
ENDBRANCH  13  21
BRANCH  14  23
HETATM   23  O   UNK N   1      28.659  48.825  56.162  0.00  0.00    -0.392 OA
HETATM   24  H   UNK N   1      28.038  48.053  56.090  0.00  0.00     0.210 HD
ENDBRANCH  14  23
BRANCH   9  25
HETATM   25  O   UNK N   1      29.577  46.641  61.842  0.00  0.00    -0.390 OA
HETATM   26  H   UNK N   1      28.720  46.759  62.330  0.00  0.00     0.210 HD
ENDBRANCH   9  25
BRANCH   4  27
HETATM   27  O   UNK N   1      32.267  44.930  56.744  0.00  0.00    -0.360 OA
HETATM   28  H   UNK N   1      31.837  44.749  55.904  0.00  0.00     0.217 HD
ENDBRANCH   4  27
BRANCH   6  29
HETATM   29  O   UNK N   1      31.916  42.358  60.724  0.00  0.00    -0.356 OA
HETATM   30  C   UNK N   1      32.812  41.392  60.309  0.00  0.00     0.210 C 
ENDBRANCH   6  29
TORSDOF 7
ENDMDL
MODEL 8
REMARK VINA RESULT:      -4.6     12.838     15.134
REMARK  7 active torsions:
REMARK  status: ('A' for Active; 'I' for Inactive)
REMARK    1  A    between atoms: C_4  and  O_5 
REMARK    2  A    between atoms: C_8  and  O_9 
REMARK    3  A    between atoms: C_13  and  O_14 
REMARK    4  A    between atoms: C_17  and  O_18 
REMARK    5  A    between atoms: C_20  and  O_21 
REMARK    6  A    between atoms: C_23  and  O_24 
REMARK    7  A    between atoms: C_26  and  O_27 
ROOT
HETATM    1  O   UNK N   1      27.249  38.514  52.933  0.00  0.00    -0.292 OA
HETATM    2  C   UNK N   1      27.337  39.729  52.974  0.00  0.00     0.170 C 
HETATM    3  C   UNK N   1      28.430  40.394  53.746  0.00  0.00     0.052 A 
HETATM    4  C   UNK N   1      29.195  39.720  54.746  0.00  0.00     0.082 A 
HETATM    5  C   UNK N   1      30.189  40.413  55.435  0.00  0.00     0.074 A 
HETATM    6  C   UNK N   1      30.448  41.767  55.177  0.00  0.00     0.071 A 
HETATM    7  C   UNK N   1      29.706  42.430  54.200  0.00  0.00     0.047 A 
HETATM    8  C   UNK N   1      28.714  41.758  53.464  0.00  0.00    -0.010 A 
HETATM    9  C   UNK N   1      27.971  42.523  52.368  0.00  0.00     0.160 C 
HETATM   10  C   UNK N   1      27.191  41.603  51.385  0.00  0.00     0.065 C 
HETATM   11  C   UNK N   1      26.312  42.430  50.402  0.00  0.00     0.162 C 
HETATM   12  C   UNK N   1      25.536  41.494  49.428  0.00  0.00     0.109 C 
HETATM   13  C   UNK N   1      24.634  40.513  50.241  0.00  0.00     0.184 C 
HETATM   14  C   UNK N   1      25.488  39.695  51.241  0.00  0.00     0.162 C 
HETATM   15  C   UNK N   1      26.365  40.578  52.176  0.00  0.00     0.101 C 
HETATM   16  C   UNK N   1      24.683  42.346  48.464  0.00  0.00     0.051 C 
ENDROOT
BRANCH  12  17
HETATM   17  O   UNK N   1      26.491  40.773  48.680  0.00  0.00    -0.385 OA
HETATM   18  H   UNK N   1      26.335  39.803  48.815  0.00  0.00     0.210 HD
ENDBRANCH  12  17
BRANCH  11  19
HETATM   19  O   UNK N   1      25.455  43.329  51.072  0.00  0.00    -0.392 OA
HETATM   20  H   UNK N   1      25.093  43.984  50.427  0.00  0.00     0.210 HD
ENDBRANCH  11  19
BRANCH  13  21
HETATM   21  O   UNK N   1      23.974  39.641  49.353  0.00  0.00    -0.390 OA
HETATM   22  H   UNK N   1      23.003  39.691  49.547  0.00  0.00     0.210 HD
ENDBRANCH  13  21
BRANCH  14  23
HETATM   23  O   UNK N   1      24.665  38.847  52.007  0.00  0.00    -0.392 OA
HETATM   24  H   UNK N   1      25.075  38.775  52.910  0.00  0.00     0.210 HD
ENDBRANCH  14  23
BRANCH   9  25
HETATM   25  O   UNK N   1      28.851  43.345  51.639  0.00  0.00    -0.390 OA
HETATM   26  H   UNK N   1      28.529  44.281  51.722  0.00  0.00     0.210 HD
ENDBRANCH   9  25
BRANCH   4  27
HETATM   27  O   UNK N   1      29.003  38.427  55.097  0.00  0.00    -0.360 OA
HETATM   28  H   UNK N   1      28.231  38.064  55.540  0.00  0.00     0.217 HD
ENDBRANCH   4  27
BRANCH   6  29
HETATM   29  O   UNK N   1      31.407  42.456  55.851  0.00  0.00    -0.356 OA
HETATM   30  C   UNK N   1      31.277  42.920  57.145  0.00  0.00     0.210 C 
ENDBRANCH   6  29
TORSDOF 7
ENDMDL
MODEL 9
REMARK VINA RESULT:      -4.6     13.196     15.071
REMARK  7 active torsions:
REMARK  status: ('A' for Active; 'I' for Inactive)
REMARK    1  A    between atoms: C_4  and  O_5 
REMARK    2  A    between atoms: C_8  and  O_9 
REMARK    3  A    between atoms: C_13  and  O_14 
REMARK    4  A    between atoms: C_17  and  O_18 
REMARK    5  A    between atoms: C_20  and  O_21 
REMARK    6  A    between atoms: C_23  and  O_24 
REMARK    7  A    between atoms: C_26  and  O_27 
ROOT
HETATM    1  O   UNK N   1      27.991  37.867  53.032  0.00  0.00    -0.292 OA
HETATM    2  C   UNK N   1      28.081  38.721  53.898  0.00  0.00     0.170 C 
HETATM    3  C   UNK N   1      28.662  38.401  55.236  0.00  0.00     0.052 A 
HETATM    4  C   UNK N   1      28.809  37.064  55.719  0.00  0.00     0.082 A 
HETATM    5  C   UNK N   1      29.346  36.846  56.986  0.00  0.00     0.074 A 
HETATM    6  C   UNK N   1      29.737  37.912  57.808  0.00  0.00     0.071 A 
HETATM    7  C   UNK N   1      29.599  39.220  57.341  0.00  0.00     0.047 A 
HETATM    8  C   UNK N   1      29.087  39.479  56.058  0.00  0.00    -0.010 A 
HETATM    9  C   UNK N   1      29.010  40.931  55.581  0.00  0.00     0.160 C 
HETATM   10  C   UNK N   1      28.798  41.071  54.046  0.00  0.00     0.065 C 
HETATM   11  C   UNK N   1      28.549  42.553  53.636  0.00  0.00     0.162 C 
HETATM   12  C   UNK N   1      28.335  42.675  52.097  0.00  0.00     0.109 C 
HETATM   13  C   UNK N   1      27.122  41.796  51.658  0.00  0.00     0.184 C 
HETATM   14  C   UNK N   1      27.340  40.322  52.077  0.00  0.00     0.162 C 
HETATM   15  C   UNK N   1      27.660  40.147  53.590  0.00  0.00     0.101 C 
HETATM   16  C   UNK N   1      28.100  44.154  51.725  0.00  0.00     0.051 C 
ENDROOT
BRANCH  12  17
HETATM   17  O   UNK N   1      29.516  42.225  51.467  0.00  0.00    -0.385 OA
HETATM   18  H   UNK N   1      30.259  42.837  51.709  0.00  0.00     0.210 HD
ENDBRANCH  12  17
BRANCH  11  19
HETATM   19  O   UNK N   1      27.498  43.144  54.368  0.00  0.00    -0.392 OA
HETATM   20  H   UNK N   1      27.771  43.251  55.311  0.00  0.00     0.210 HD
ENDBRANCH  11  19
BRANCH  13  21
HETATM   21  O   UNK N   1      26.968  41.878  50.261  0.00  0.00    -0.390 OA
HETATM   22  H   UNK N   1      27.503  41.149  49.854  0.00  0.00     0.210 HD
ENDBRANCH  13  21
BRANCH  14  23
HETATM   23  O   UNK N   1      26.222  39.542  51.725  0.00  0.00    -0.392 OA
HETATM   24  H   UNK N   1      25.421  39.981  52.116  0.00  0.00     0.210 HD
ENDBRANCH  14  23
BRANCH   9  25
HETATM   25  O   UNK N   1      30.159  41.650  55.961  0.00  0.00    -0.390 OA
HETATM   26  H   UNK N   1      30.511  42.106  55.152  0.00  0.00     0.210 HD
ENDBRANCH   9  25
BRANCH   4  27
HETATM   27  O   UNK N   1      28.431  35.967  55.022  0.00  0.00    -0.360 OA
HETATM   28  H   UNK N   1      27.857  35.263  55.333  0.00  0.00     0.217 HD
ENDBRANCH   4  27
BRANCH   6  29
HETATM   29  O   UNK N   1      30.252  37.711  59.050  0.00  0.00    -0.356 OA
HETATM   30  C   UNK N   1      30.830  38.695  59.828  0.00  0.00     0.210 C 
ENDBRANCH   6  29
TORSDOF 7
ENDMDL
