MODEL 1
REMARK VINA RESULT:      -6.4      0.000      0.000
REMARK  5 active torsions:
REMARK  status: ('A' for Active; 'I' for Inactive)
REMARK    1  A    between atoms: C_6  and  C_7 
REMARK    2  A    between atoms: C_10  and  O_11 
REMARK    3  A    between atoms: C_22  and  O_23 
REMARK    4  A    between atoms: C_25  and  O_27 
REMARK    5  A    between atoms: C_30  and  O_31 
ROOT
HETATM    1  O   UNK N   1      33.520  49.235  43.398  0.00  0.00    -0.292 OA
HETATM    2  C   UNK N   1      32.986  50.316  43.199  0.00  0.00     0.167 C 
HETATM    3  C   UNK N   1      31.843  50.453  42.257  0.00  0.00     0.077 A 
HETATM    4  C   UNK N   1      31.323  51.761  42.031  0.00  0.00     0.100 A 
HETATM    5  O   UNK N   1      31.819  52.815  42.731  0.00  0.00    -0.339 OA
HETATM    6  C   UNK N   1      32.437  52.598  43.958  0.00  0.00     0.169 C 
HETATM    7  C   UNK N   1      33.560  51.556  43.826  0.00  0.00     0.121 C 
HETATM    8  C   UNK N   1      30.286  51.911  41.100  0.00  0.00     0.045 A 
HETATM    9  C   UNK N   1      29.759  50.813  40.452  0.00  0.00     0.092 A 
HETATM   10  O   UNK N   1      28.787  51.171  39.643  0.00  0.00    -0.309 OA
HETATM   11  C   UNK N   1      28.655  52.475  39.731  0.00  0.00     0.090 A 
HETATM   12  C   UNK N   1      29.565  52.996  40.625  0.00  0.00     0.016 A 
HETATM   13  C   UNK N   1      29.617  54.369  40.881  0.00  0.00     0.054 A 
HETATM   14  C   UNK N   1      28.704  55.212  40.195  0.00  0.00     0.099 A 
HETATM   15  C   UNK N   1      27.766  54.654  39.278  0.00  0.00     0.101 A 
HETATM   16  C   UNK N   1      27.745  53.269  39.048  0.00  0.00     0.077 A 
HETATM   17  C   UNK N   1      30.222  49.524  40.672  0.00  0.00     0.076 A 
HETATM   18  C   UNK N   1      31.282  49.336  41.578  0.00  0.00     0.085 A 
ENDROOT
BRANCH   6  19
HETATM   19  C   UNK N   1      32.935  53.884  44.559  0.00  0.00    -0.028 A 
HETATM   20  C   UNK N   1      32.218  54.523  45.584  0.00  0.00     0.012 A 
HETATM   21  C   UNK N   1      32.685  55.726  46.121  0.00  0.00     0.037 A 
HETATM   22  C   UNK N   1      33.873  56.299  45.642  0.00  0.00     0.065 A 
HETATM   23  C   UNK N   1      34.589  55.662  44.624  0.00  0.00     0.037 A 
HETATM   24  C   UNK N   1      34.124  54.464  44.083  0.00  0.00     0.012 A 
BRANCH  22  25
HETATM   25  O   UNK N   1      34.331  57.457  46.155  0.00  0.00    -0.361 OA
HETATM   26  H   UNK N   1      33.971  57.825  46.974  0.00  0.00     0.217 HD
ENDBRANCH  22  25
ENDBRANCH   6  19
BRANCH  18  27
HETATM   27  O   UNK N   1      31.757  48.092  41.800  0.00  0.00    -0.360 OA
HETATM   28  H   UNK N   1      32.198  47.584  41.105  0.00  0.00     0.217 HD
ENDBRANCH  18  27
BRANCH  14  29
HETATM   29  O   UNK N   1      28.718  56.544  40.405  0.00  0.00    -0.358 OA
HETATM   30  H   UNK N   1      27.927  57.028  40.682  0.00  0.00     0.218 HD
ENDBRANCH  14  29
BRANCH  15  31
HETATM   31  O   UNK N   1      26.886  55.437  38.617  0.00  0.00    -0.358 OA
HETATM   32  H   UNK N   1      26.987  55.652  37.679  0.00  0.00     0.218 HD
ENDBRANCH  15  31
TORSDOF 5
ENDMDL
MODEL 2
REMARK VINA RESULT:      -5.9      1.337      2.171
REMARK  5 active torsions:
REMARK  status: ('A' for Active; 'I' for Inactive)
REMARK    1  A    between atoms: C_6  and  C_7 
REMARK    2  A    between atoms: C_10  and  O_11 
REMARK    3  A    between atoms: C_22  and  O_23 
REMARK    4  A    between atoms: C_25  and  O_27 
REMARK    5  A    between atoms: C_30  and  O_31 
ROOT
HETATM    1  O   UNK N   1      31.928  49.939  42.133  0.00  0.00    -0.292 OA
HETATM    2  C   UNK N   1      31.665  51.130  42.193  0.00  0.00     0.167 C 
HETATM    3  C   UNK N   1      30.577  51.725  41.370  0.00  0.00     0.077 A 
HETATM    4  C   UNK N   1      30.381  53.135  41.449  0.00  0.00     0.100 A 
HETATM    5  O   UNK N   1      31.121  53.872  42.319  0.00  0.00    -0.339 OA
HETATM    6  C   UNK N   1      31.683  53.261  43.435  0.00  0.00     0.169 C 
HETATM    7  C   UNK N   1      32.523  52.041  43.024  0.00  0.00     0.121 C 
HETATM    8  C   UNK N   1      29.400  53.715  40.633  0.00  0.00     0.045 A 
HETATM    9  C   UNK N   1      28.619  52.933  39.808  0.00  0.00     0.092 A 
HETATM   10  O   UNK N   1      27.752  53.669  39.150  0.00  0.00    -0.309 OA
HETATM   11  C   UNK N   1      27.936  54.919  39.511  0.00  0.00     0.090 A 
HETATM   12  C   UNK N   1      28.953  55.013  40.435  0.00  0.00     0.016 A 
HETATM   13  C   UNK N   1      29.333  56.249  40.963  0.00  0.00     0.054 A 
HETATM   14  C   UNK N   1      28.640  57.406  40.521  0.00  0.00     0.099 A 
HETATM   15  C   UNK N   1      27.586  57.289  39.568  0.00  0.00     0.101 A 
HETATM   16  C   UNK N   1      27.234  56.028  39.061  0.00  0.00     0.077 A 
HETATM   17  C   UNK N   1      28.765  51.555  39.730  0.00  0.00     0.076 A 
HETATM   18  C   UNK N   1      29.759  50.938  40.512  0.00  0.00     0.085 A 
ENDROOT
BRANCH   6  19
HETATM   19  C   UNK N   1      32.479  54.239  44.255  0.00  0.00    -0.028 A 
HETATM   20  C   UNK N   1      33.723  54.709  43.805  0.00  0.00     0.012 A 
HETATM   21  C   UNK N   1      34.459  55.604  44.588  0.00  0.00     0.037 A 
HETATM   22  C   UNK N   1      33.956  56.041  45.823  0.00  0.00     0.065 A 
HETATM   23  C   UNK N   1      32.716  55.576  46.270  0.00  0.00     0.037 A 
HETATM   24  C   UNK N   1      31.981  54.679  45.494  0.00  0.00     0.012 A 
BRANCH  22  25
HETATM   25  O   UNK N   1      34.657  56.905  46.582  0.00  0.00    -0.361 OA
HETATM   26  H   UNK N   1      35.190  56.602  47.331  0.00  0.00     0.217 HD
ENDBRANCH  22  25
ENDBRANCH   6  19
BRANCH  18  27
HETATM   27  O   UNK N   1      29.926  49.601  40.446  0.00  0.00    -0.360 OA
HETATM   28  H   UNK N   1      29.926  49.048  41.240  0.00  0.00     0.217 HD
ENDBRANCH  18  27
BRANCH  14  29
HETATM   29  O   UNK N   1      28.974  58.624  40.998  0.00  0.00    -0.358 OA
HETATM   30  H   UNK N   1      29.232  58.759  41.920  0.00  0.00     0.218 HD
ENDBRANCH  14  29
BRANCH  15  31
HETATM   31  O   UNK N   1      26.912  58.376  39.136  0.00  0.00    -0.358 OA
HETATM   32  H   UNK N   1      25.947  58.431  39.162  0.00  0.00     0.218 HD
ENDBRANCH  15  31
TORSDOF 5
ENDMDL
MODEL 3
REMARK VINA RESULT:      -5.6     17.031     19.092
REMARK  5 active torsions:
REMARK  status: ('A' for Active; 'I' for Inactive)
REMARK    1  A    between atoms: C_6  and  C_7 
REMARK    2  A    between atoms: C_10  and  O_11 
REMARK    3  A    between atoms: C_22  and  O_23 
REMARK    4  A    between atoms: C_25  and  O_27 
REMARK    5  A    between atoms: C_30  and  O_31 
ROOT
HETATM    1  O   UNK N   1      31.523  42.029  62.083  0.00  0.00    -0.292 OA
HETATM    2  C   UNK N   1      31.066  42.403  61.014  0.00  0.00     0.167 C 
HETATM    3  C   UNK N   1      30.543  41.433  60.013  0.00  0.00     0.077 A 
HETATM    4  C   UNK N   1      30.092  41.948  58.764  0.00  0.00     0.100 A 
HETATM    5  O   UNK N   1      30.071  43.291  58.554  0.00  0.00    -0.339 OA
HETATM    6  C   UNK N   1      30.006  44.157  59.641  0.00  0.00     0.169 C 
HETATM    7  C   UNK N   1      31.131  43.858  60.645  0.00  0.00     0.121 C 
HETATM    8  C   UNK N   1      29.654  41.039  57.791  0.00  0.00     0.045 A 
HETATM    9  C   UNK N   1      29.626  39.686  58.055  0.00  0.00     0.092 A 
HETATM   10  O   UNK N   1      29.164  39.018  57.022  0.00  0.00    -0.309 OA
HETATM   11  C   UNK N   1      28.888  39.888  56.076  0.00  0.00     0.090 A 
HETATM   12  C   UNK N   1      29.175  41.168  56.495  0.00  0.00     0.016 A 
HETATM   13  C   UNK N   1      28.966  42.264  55.654  0.00  0.00     0.054 A 
HETATM   14  C   UNK N   1      28.450  42.020  54.355  0.00  0.00     0.099 A 
HETATM   15  C   UNK N   1      28.154  40.689  53.940  0.00  0.00     0.101 A 
HETATM   16  C   UNK N   1      28.378  39.614  54.815  0.00  0.00     0.077 A 
HETATM   17  C   UNK N   1      30.031  39.155  59.271  0.00  0.00     0.076 A 
HETATM   18  C   UNK N   1      30.504  40.033  60.264  0.00  0.00     0.085 A 
ENDROOT
BRANCH   6  19
HETATM   19  C   UNK N   1      30.015  45.595  59.201  0.00  0.00    -0.028 A 
HETATM   20  C   UNK N   1      29.532  46.608  60.045  0.00  0.00     0.012 A 
HETATM   21  C   UNK N   1      29.532  47.938  59.615  0.00  0.00     0.037 A 
HETATM   22  C   UNK N   1      30.017  48.268  58.340  0.00  0.00     0.065 A 
HETATM   23  C   UNK N   1      30.501  47.260  57.500  0.00  0.00     0.037 A 
HETATM   24  C   UNK N   1      30.499  45.932  57.924  0.00  0.00     0.012 A 
BRANCH  22  25
HETATM   25  O   UNK N   1      30.022  49.547  57.918  0.00  0.00    -0.361 OA
HETATM   26  H   UNK N   1      29.797  49.779  57.006  0.00  0.00     0.217 HD
ENDBRANCH  22  25
ENDBRANCH   6  19
BRANCH  18  27
HETATM   27  O   UNK N   1      30.912  39.539  61.452  0.00  0.00    -0.360 OA
HETATM   28  H   UNK N   1      30.547  38.720  61.815  0.00  0.00     0.217 HD
ENDBRANCH  18  27
BRANCH  14  29
HETATM   29  O   UNK N   1      28.236  43.045  53.504  0.00  0.00    -0.358 OA
HETATM   30  H   UNK N   1      27.407  43.544  53.500  0.00  0.00     0.218 HD
ENDBRANCH  14  29
BRANCH  15  31
HETATM   31  O   UNK N   1      27.660  40.435  52.709  0.00  0.00    -0.358 OA
HETATM   32  H   UNK N   1      27.154  39.636  52.510  0.00  0.00     0.218 HD
ENDBRANCH  15  31
TORSDOF 5
ENDMDL
MODEL 4
REMARK VINA RESULT:      -5.5     22.386     24.316
REMARK  5 active torsions:
REMARK  status: ('A' for Active; 'I' for Inactive)
REMARK    1  A    between atoms: C_6  and  C_7 
REMARK    2  A    between atoms: C_10  and  O_11 
REMARK    3  A    between atoms: C_22  and  O_23 
REMARK    4  A    between atoms: C_25  and  O_27 
REMARK    5  A    between atoms: C_30  and  O_31 
ROOT
HETATM    1  O   UNK N   1      52.376  53.951  53.246  0.00  0.00    -0.292 OA
HETATM    2  C   UNK N   1      51.740  53.885  54.287  0.00  0.00     0.167 C 
HETATM    3  C   UNK N   1      50.676  54.876  54.607  0.00  0.00     0.077 A 
HETATM    4  C   UNK N   1      50.029  54.768  55.872  0.00  0.00     0.100 A 
HETATM    5  O   UNK N   1      50.335  53.735  56.702  0.00  0.00    -0.339 OA
HETATM    6  C   UNK N   1      50.863  52.561  56.174  0.00  0.00     0.169 C 
HETATM    7  C   UNK N   1      52.107  52.858  55.320  0.00  0.00     0.121 C 
HETATM    8  C   UNK N   1      49.069  55.730  56.210  0.00  0.00     0.045 A 
HETATM    9  C   UNK N   1      48.732  56.731  55.322  0.00  0.00     0.092 A 
HETATM   10  O   UNK N   1      47.801  57.509  55.825  0.00  0.00    -0.309 OA
HETATM   11  C   UNK N   1      47.510  57.058  57.024  0.00  0.00     0.090 A 
HETATM   12  C   UNK N   1      48.271  55.949  57.324  0.00  0.00     0.016 A 
HETATM   13  C   UNK N   1      48.139  55.297  58.552  0.00  0.00     0.054 A 
HETATM   14  C   UNK N   1      47.198  55.809  59.483  0.00  0.00     0.099 A 
HETATM   15  C   UNK N   1      46.416  56.955  59.154  0.00  0.00     0.101 A 
HETATM   16  C   UNK N   1      46.578  57.582  57.909  0.00  0.00     0.077 A 
HETATM   17  C   UNK N   1      49.322  56.846  54.070  0.00  0.00     0.076 A 
HETATM   18  C   UNK N   1      50.312  55.915  53.706  0.00  0.00     0.085 A 
ENDROOT
BRANCH   6  19
HETATM   19  C   UNK N   1      51.152  51.554  57.253  0.00  0.00    -0.028 A 
HETATM   20  C   UNK N   1      51.856  50.374  56.965  0.00  0.00     0.012 A 
HETATM   21  C   UNK N   1      52.102  49.440  57.975  0.00  0.00     0.037 A 
HETATM   22  C   UNK N   1      51.651  49.678  59.282  0.00  0.00     0.065 A 
HETATM   23  C   UNK N   1      50.952  50.854  59.571  0.00  0.00     0.037 A 
HETATM   24  C   UNK N   1      50.701  51.786  58.565  0.00  0.00     0.012 A 
BRANCH  22  25
HETATM   25  O   UNK N   1      51.884  48.784  60.262  0.00  0.00    -0.361 OA
HETATM   26  H   UNK N   1      52.726  48.311  60.325  0.00  0.00     0.217 HD
ENDBRANCH  22  25
ENDBRANCH   6  19
BRANCH  18  27
HETATM   27  O   UNK N   1      50.907  56.012  52.498  0.00  0.00    -0.360 OA
HETATM   28  H   UNK N   1      51.006  56.862  52.047  0.00  0.00     0.217 HD
ENDBRANCH  18  27
BRANCH  14  29
HETATM   29  O   UNK N   1      47.038  55.217  60.685  0.00  0.00    -0.358 OA
HETATM   30  H   UNK N   1      47.525  54.418  60.932  0.00  0.00     0.218 HD
ENDBRANCH  14  29
BRANCH  15  31
HETATM   31  O   UNK N   1      45.514  57.457  60.024  0.00  0.00    -0.358 OA
HETATM   32  H   UNK N   1      44.825  58.079  59.754  0.00  0.00     0.218 HD
ENDBRANCH  15  31
TORSDOF 5
ENDMDL
MODEL 5
REMARK VINA RESULT:      -5.5     15.844     17.795
REMARK  5 active torsions:
REMARK  status: ('A' for Active; 'I' for Inactive)
REMARK    1  A    between atoms: C_6  and  C_7 
REMARK    2  A    between atoms: C_10  and  O_11 
REMARK    3  A    between atoms: C_22  and  O_23 
REMARK    4  A    between atoms: C_25  and  O_27 
REMARK    5  A    between atoms: C_30  and  O_31 
ROOT
HETATM    1  O   UNK N   1      30.473  40.971  60.339  0.00  0.00    -0.292 OA
HETATM    2  C   UNK N   1      30.196  41.559  59.304  0.00  0.00     0.167 C 
HETATM    3  C   UNK N   1      29.718  40.825  58.101  0.00  0.00     0.077 A 
HETATM    4  C   UNK N   1      29.483  41.579  56.915  0.00  0.00     0.100 A 
HETATM    5  O   UNK N   1      29.616  42.932  56.936  0.00  0.00    -0.339 OA
HETATM    6  C   UNK N   1      29.493  43.617  58.140  0.00  0.00     0.169 C 
HETATM    7  C   UNK N   1      30.445  43.037  59.199  0.00  0.00     0.121 C 
HETATM    8  C   UNK N   1      29.092  40.891  55.759  0.00  0.00     0.045 A 
HETATM    9  C   UNK N   1      28.902  39.525  55.783  0.00  0.00     0.092 A 
HETATM   10  O   UNK N   1      28.517  39.085  54.606  0.00  0.00    -0.309 OA
HETATM   11  C   UNK N   1      28.449  40.119  53.798  0.00  0.00     0.090 A 
HETATM   12  C   UNK N   1      28.799  41.276  54.459  0.00  0.00     0.016 A 
HETATM   13  C   UNK N   1      28.805  42.508  53.798  0.00  0.00     0.054 A 
HETATM   14  C   UNK N   1      28.441  42.532  52.427  0.00  0.00     0.099 A 
HETATM   15  C   UNK N   1      28.077  41.326  51.761  0.00  0.00     0.101 A 
HETATM   16  C   UNK N   1      28.083  40.108  52.459  0.00  0.00     0.077 A 
HETATM   17  C   UNK N   1      29.094  38.766  56.929  0.00  0.00     0.076 A 
HETATM   18  C   UNK N   1      29.515  39.417  58.104  0.00  0.00     0.085 A 
ENDROOT
BRANCH   6  19
HETATM   19  C   UNK N   1      29.694  45.096  57.956  0.00  0.00    -0.028 A 
HETATM   20  C   UNK N   1      30.922  45.602  57.500  0.00  0.00     0.012 A 
HETATM   21  C   UNK N   1      31.099  46.981  57.350  0.00  0.00     0.037 A 
HETATM   22  C   UNK N   1      30.051  47.864  57.649  0.00  0.00     0.065 A 
HETATM   23  C   UNK N   1      28.827  47.361  58.100  0.00  0.00     0.037 A 
HETATM   24  C   UNK N   1      28.648  45.986  58.255  0.00  0.00     0.012 A 
BRANCH  22  25
HETATM   25  O   UNK N   1      30.212  49.194  57.506  0.00  0.00    -0.361 OA
HETATM   26  H   UNK N   1      29.564  49.734  57.031  0.00  0.00     0.217 HD
ENDBRANCH  22  25
ENDBRANCH   6  19
BRANCH  18  27
HETATM   27  O   UNK N   1      29.718  38.699  59.228  0.00  0.00    -0.360 OA
HETATM   28  H   UNK N   1      29.324  37.823  59.351  0.00  0.00     0.217 HD
ENDBRANCH  18  27
BRANCH  14  29
HETATM   29  O   UNK N   1      28.436  43.696  51.744  0.00  0.00    -0.358 OA
HETATM   30  H   UNK N   1      29.160  43.946  51.152  0.00  0.00     0.218 HD
ENDBRANCH  14  29
BRANCH  15  31
HETATM   31  O   UNK N   1      27.724  41.327  50.457  0.00  0.00    -0.358 OA
HETATM   32  H   UNK N   1      27.766  40.532  49.909  0.00  0.00     0.218 HD
ENDBRANCH  15  31
TORSDOF 5
ENDMDL
MODEL 6
REMARK VINA RESULT:      -5.5      2.271      4.024
REMARK  5 active torsions:
REMARK  status: ('A' for Active; 'I' for Inactive)
REMARK    1  A    between atoms: C_6  and  C_7 
REMARK    2  A    between atoms: C_10  and  O_11 
REMARK    3  A    between atoms: C_22  and  O_23 
REMARK    4  A    between atoms: C_25  and  O_27 
REMARK    5  A    between atoms: C_30  and  O_31 
ROOT
HETATM    1  O   UNK N   1      29.764  50.548  40.075  0.00  0.00    -0.292 OA
HETATM    2  C   UNK N   1      29.713  51.657  40.586  0.00  0.00     0.167 C 
HETATM    3  C   UNK N   1      28.572  52.577  40.328  0.00  0.00     0.077 A 
HETATM    4  C   UNK N   1      28.624  53.877  40.908  0.00  0.00     0.100 A 
HETATM    5  O   UNK N   1      29.652  54.208  41.734  0.00  0.00    -0.339 OA
HETATM    6  C   UNK N   1      30.353  53.205  42.396  0.00  0.00     0.169 C 
HETATM    7  C   UNK N   1      30.873  52.155  41.401  0.00  0.00     0.121 C 
HETATM    8  C   UNK N   1      27.586  54.774  40.623  0.00  0.00     0.045 A 
HETATM    9  C   UNK N   1      26.522  54.389  39.833  0.00  0.00     0.092 A 
HETATM   10  O   UNK N   1      25.653  55.368  39.710  0.00  0.00    -0.309 OA
HETATM   11  C   UNK N   1      26.110  56.393  40.392  0.00  0.00     0.090 A 
HETATM   12  C   UNK N   1      27.316  56.085  40.984  0.00  0.00     0.016 A 
HETATM   13  C   UNK N   1      27.997  57.027  41.760  0.00  0.00     0.054 A 
HETATM   14  C   UNK N   1      27.412  58.309  41.921  0.00  0.00     0.099 A 
HETATM   15  C   UNK N   1      26.162  58.609  41.306  0.00  0.00     0.101 A 
HETATM   16  C   UNK N   1      25.508  57.635  40.533  0.00  0.00     0.077 A 
HETATM   17  C   UNK N   1      26.426  53.121  39.277  0.00  0.00     0.076 A 
HETATM   18  C   UNK N   1      27.464  52.202  39.517  0.00  0.00     0.085 A 
ENDROOT
BRANCH   6  19
HETATM   19  C   UNK N   1      31.461  53.774  43.240  0.00  0.00    -0.028 A 
HETATM   20  C   UNK N   1      32.403  52.931  43.851  0.00  0.00     0.012 A 
HETATM   21  C   UNK N   1      33.417  53.473  44.646  0.00  0.00     0.037 A 
HETATM   22  C   UNK N   1      33.501  54.861  44.835  0.00  0.00     0.065 A 
HETATM   23  C   UNK N   1      32.565  55.701  44.225  0.00  0.00     0.037 A 
HETATM   24  C   UNK N   1      31.549  55.164  43.434  0.00  0.00     0.012 A 
BRANCH  22  25
HETATM   25  O   UNK N   1      34.475  55.392  45.598  0.00  0.00    -0.361 OA
HETATM   26  H   UNK N   1      35.406  55.340  45.339  0.00  0.00     0.217 HD
ENDBRANCH  22  25
ENDBRANCH   6  19
BRANCH  18  27
HETATM   27  O   UNK N   1      27.398  50.966  38.979  0.00  0.00    -0.360 OA
HETATM   28  H   UNK N   1      27.725  50.187  39.452  0.00  0.00     0.217 HD
ENDBRANCH  18  27
BRANCH  14  29
HETATM   29  O   UNK N   1      28.034  59.254  42.657  0.00  0.00    -0.358 OA
HETATM   30  H   UNK N   1      27.542  59.908  43.173  0.00  0.00     0.218 HD
ENDBRANCH  14  29
BRANCH  15  31
HETATM   31  O   UNK N   1      25.586  59.822  41.449  0.00  0.00    -0.358 OA
HETATM   32  H   UNK N   1      25.658  60.512  40.775  0.00  0.00     0.218 HD
ENDBRANCH  15  31
TORSDOF 5
ENDMDL
MODEL 7
REMARK VINA RESULT:      -5.5     22.091     24.223
REMARK  5 active torsions:
REMARK  status: ('A' for Active; 'I' for Inactive)
REMARK    1  A    between atoms: C_6  and  C_7 
REMARK    2  A    between atoms: C_10  and  O_11 
REMARK    3  A    between atoms: C_22  and  O_23 
REMARK    4  A    between atoms: C_25  and  O_27 
REMARK    5  A    between atoms: C_30  and  O_31 
ROOT
HETATM    1  O   UNK N   1      49.234  57.574  53.226  0.00  0.00    -0.292 OA
HETATM    2  C   UNK N   1      49.138  56.918  54.252  0.00  0.00     0.167 C 
HETATM    3  C   UNK N   1      50.015  55.743  54.505  0.00  0.00     0.077 A 
HETATM    4  C   UNK N   1      49.791  54.992  55.695  0.00  0.00     0.100 A 
HETATM    5  O   UNK N   1      48.858  55.408  56.591  0.00  0.00    -0.339 OA
HETATM    6  C   UNK N   1      48.485  56.748  56.625  0.00  0.00     0.169 C 
HETATM    7  C   UNK N   1      48.041  57.226  55.233  0.00  0.00     0.121 C 
HETATM    8  C   UNK N   1      50.570  53.847  55.913  0.00  0.00     0.045 A 
HETATM    9  C   UNK N   1      51.554  53.485  55.017  0.00  0.00     0.092 A 
HETATM   10  O   UNK N   1      52.177  52.400  55.421  0.00  0.00    -0.309 OA
HETATM   11  C   UNK N   1      51.634  52.029  56.558  0.00  0.00     0.090 A 
HETATM   12  C   UNK N   1      50.622  52.892  56.918  0.00  0.00     0.016 A 
HETATM   13  C   UNK N   1      49.892  52.695  58.093  0.00  0.00     0.054 A 
HETATM   14  C   UNK N   1      50.224  51.580  58.907  0.00  0.00     0.099 A 
HETATM   15  C   UNK N   1      51.277  50.701  58.521  0.00  0.00     0.101 A 
HETATM   16  C   UNK N   1      51.987  50.933  57.332  0.00  0.00     0.077 A 
HETATM   17  C   UNK N   1      51.817  54.211  53.864  0.00  0.00     0.076 A 
HETATM   18  C   UNK N   1      51.037  55.350  53.595  0.00  0.00     0.085 A 
ENDROOT
BRANCH   6  19
HETATM   19  C   UNK N   1      47.430  57.000  57.667  0.00  0.00    -0.028 A 
HETATM   20  C   UNK N   1      46.489  58.029  57.502  0.00  0.00     0.012 A 
HETATM   21  C   UNK N   1      45.525  58.261  58.487  0.00  0.00     0.037 A 
HETATM   22  C   UNK N   1      45.489  57.465  59.642  0.00  0.00     0.065 A 
HETATM   23  C   UNK N   1      46.424  56.438  59.806  0.00  0.00     0.037 A 
HETATM   24  C   UNK N   1      47.390  56.206  58.827  0.00  0.00     0.012 A 
BRANCH  22  25
HETATM   25  O   UNK N   1      44.563  57.681  60.596  0.00  0.00    -0.361 OA
HETATM   26  H   UNK N   1      44.587  58.471  61.154  0.00  0.00     0.217 HD
ENDBRANCH  22  25
ENDBRANCH   6  19
BRANCH  18  27
HETATM   27  O   UNK N   1      51.267  56.068  52.475  0.00  0.00    -0.360 OA
HETATM   28  H   UNK N   1      50.973  56.985  52.390  0.00  0.00     0.217 HD
ENDBRANCH  18  27
BRANCH  14  29
HETATM   29  O   UNK N   1      49.545  51.345  60.049  0.00  0.00    -0.358 OA
HETATM   30  H   UNK N   1      49.253  50.457  60.298  0.00  0.00     0.218 HD
ENDBRANCH  14  29
BRANCH  15  31
HETATM   31  O   UNK N   1      51.611  49.636  59.282  0.00  0.00    -0.358 OA
HETATM   32  H   UNK N   1      52.428  49.138  59.145  0.00  0.00     0.218 HD
ENDBRANCH  15  31
TORSDOF 5
ENDMDL
MODEL 8
REMARK VINA RESULT:      -5.4     22.564     24.137
REMARK  5 active torsions:
REMARK  status: ('A' for Active; 'I' for Inactive)
REMARK    1  A    between atoms: C_6  and  C_7 
REMARK    2  A    between atoms: C_10  and  O_11 
REMARK    3  A    between atoms: C_22  and  O_23 
REMARK    4  A    between atoms: C_25  and  O_27 
REMARK    5  A    between atoms: C_30  and  O_31 
ROOT
HETATM    1  O   UNK N   1      45.446  55.804  61.233  0.00  0.00    -0.292 OA
HETATM    2  C   UNK N   1      46.259  55.339  60.449  0.00  0.00     0.167 C 
HETATM    3  C   UNK N   1      46.703  56.101  59.250  0.00  0.00     0.077 A 
HETATM    4  C   UNK N   1      47.601  55.457  58.350  0.00  0.00     0.100 A 
HETATM    5  O   UNK N   1      48.087  54.222  58.648  0.00  0.00    -0.339 OA
HETATM    6  C   UNK N   1      48.126  53.799  59.972  0.00  0.00     0.169 C 
HETATM    7  C   UNK N   1      46.742  53.927  60.628  0.00  0.00     0.121 C 
HETATM    8  C   UNK N   1      47.978  56.140  57.187  0.00  0.00     0.045 A 
HETATM    9  C   UNK N   1      47.520  57.419  56.942  0.00  0.00     0.092 A 
HETATM   10  O   UNK N   1      48.009  57.882  55.814  0.00  0.00    -0.309 OA
HETATM   11  C   UNK N   1      48.775  56.948  55.298  0.00  0.00     0.090 A 
HETATM   12  C   UNK N   1      48.795  55.834  56.109  0.00  0.00     0.016 A 
HETATM   13  C   UNK N   1      49.543  54.705  55.761  0.00  0.00     0.054 A 
HETATM   14  C   UNK N   1      50.281  54.740  54.550  0.00  0.00     0.099 A 
HETATM   15  C   UNK N   1      50.252  55.903  53.727  0.00  0.00     0.101 A 
HETATM   16  C   UNK N   1      49.489  57.017  54.111  0.00  0.00     0.077 A 
HETATM   17  C   UNK N   1      46.668  58.084  57.812  0.00  0.00     0.076 A 
HETATM   18  C   UNK N   1      46.244  57.420  58.978  0.00  0.00     0.085 A 
ENDROOT
BRANCH   6  19
HETATM   19  C   UNK N   1      48.674  52.402  60.088  0.00  0.00    -0.028 A 
HETATM   20  C   UNK N   1      49.868  52.043  59.442  0.00  0.00     0.012 A 
HETATM   21  C   UNK N   1      50.355  50.737  59.545  0.00  0.00     0.037 A 
HETATM   22  C   UNK N   1      49.656  49.780  60.298  0.00  0.00     0.065 A 
HETATM   23  C   UNK N   1      48.468  50.138  60.943  0.00  0.00     0.037 A 
HETATM   24  C   UNK N   1      47.977  51.439  60.839  0.00  0.00     0.012 A 
BRANCH  22  25
HETATM   25  O   UNK N   1      50.118  48.520  60.404  0.00  0.00    -0.361 OA
HETATM   26  H   UNK N   1      50.019  47.882  59.682  0.00  0.00     0.217 HD
ENDBRANCH  22  25
ENDBRANCH   6  19
BRANCH  18  27
HETATM   27  O   UNK N   1      45.408  58.043  59.834  0.00  0.00    -0.360 OA
HETATM   28  H   UNK N   1      45.738  58.594  60.558  0.00  0.00     0.217 HD
ENDBRANCH  18  27
BRANCH  14  29
HETATM   29  O   UNK N   1      51.014  53.673  54.169  0.00  0.00    -0.358 OA
HETATM   30  H   UNK N   1      50.943  53.293  53.282  0.00  0.00     0.218 HD
ENDBRANCH  14  29
BRANCH  15  31
HETATM   31  O   UNK N   1      50.950  55.958  52.572  0.00  0.00    -0.358 OA
HETATM   32  H   UNK N   1      50.580  56.334  51.761  0.00  0.00     0.218 HD
ENDBRANCH  15  31
TORSDOF 5
ENDMDL
MODEL 9
REMARK VINA RESULT:      -5.3      1.601      6.344
REMARK  5 active torsions:
REMARK  status: ('A' for Active; 'I' for Inactive)
REMARK    1  A    between atoms: C_6  and  C_7 
REMARK    2  A    between atoms: C_10  and  O_11 
REMARK    3  A    between atoms: C_22  and  O_23 
REMARK    4  A    between atoms: C_25  and  O_27 
REMARK    5  A    between atoms: C_30  and  O_31 
ROOT
HETATM    1  O   UNK N   1      31.523  47.553  41.355  0.00  0.00    -0.292 OA
HETATM    2  C   UNK N   1      31.317  48.751  41.482  0.00  0.00     0.167 C 
HETATM    3  C   UNK N   1      32.182  49.597  42.348  0.00  0.00     0.077 A 
HETATM    4  C   UNK N   1      31.831  50.970  42.494  0.00  0.00     0.100 A 
HETATM    5  O   UNK N   1      30.787  51.481  41.787  0.00  0.00    -0.339 OA
HETATM    6  C   UNK N   1      30.386  50.861  40.609  0.00  0.00     0.169 C 
HETATM    7  C   UNK N   1      30.104  49.368  40.846  0.00  0.00     0.121 C 
HETATM    8  C   UNK N   1      32.601  51.764  43.355  0.00  0.00     0.045 A 
HETATM    9  C   UNK N   1      33.694  51.235  44.009  0.00  0.00     0.092 A 
HETATM   10  O   UNK N   1      34.286  52.149  44.745  0.00  0.00    -0.309 OA
HETATM   11  C   UNK N   1      33.617  53.270  44.601  0.00  0.00     0.090 A 
HETATM   12  C   UNK N   1      32.551  53.094  43.746  0.00  0.00     0.016 A 
HETATM   13  C   UNK N   1      31.689  54.151  43.444  0.00  0.00     0.054 A 
HETATM   14  C   UNK N   1      31.943  55.412  44.043  0.00  0.00     0.099 A 
HETATM   15  C   UNK N   1      33.053  55.578  44.921  0.00  0.00     0.101 A 
HETATM   16  C   UNK N   1      33.896  54.490  45.199  0.00  0.00     0.077 A 
HETATM   17  C   UNK N   1      34.080  49.909  43.865  0.00  0.00     0.076 A 
HETATM   18  C   UNK N   1      33.314  49.073  43.032  0.00  0.00     0.085 A 
ENDROOT
BRANCH   6  19
HETATM   19  C   UNK N   1      29.206  51.563  39.992  0.00  0.00    -0.028 A 
HETATM   20  C   UNK N   1      27.907  51.051  40.141  0.00  0.00     0.012 A 
HETATM   21  C   UNK N   1      26.824  51.706  39.548  0.00  0.00     0.037 A 
HETATM   22  C   UNK N   1      27.028  52.878  38.804  0.00  0.00     0.065 A 
HETATM   23  C   UNK N   1      28.321  53.390  38.657  0.00  0.00     0.037 A 
HETATM   24  C   UNK N   1      29.405  52.737  39.245  0.00  0.00     0.012 A 
BRANCH  22  25
HETATM   25  O   UNK N   1      25.990  53.516  38.230  0.00  0.00    -0.361 OA
HETATM   26  H   UNK N   1      26.125  54.191  37.550  0.00  0.00     0.217 HD
ENDBRANCH  22  25
ENDBRANCH   6  19
BRANCH  18  27
HETATM   27  O   UNK N   1      33.663  47.778  42.883  0.00  0.00    -0.360 OA
HETATM   28  H   UNK N   1      33.857  47.400  42.014  0.00  0.00     0.217 HD
ENDBRANCH  18  27
BRANCH  14  29
HETATM   29  O   UNK N   1      31.135  56.463  43.786  0.00  0.00    -0.358 OA
HETATM   30  H   UNK N   1      30.771  57.014  44.492  0.00  0.00     0.218 HD
ENDBRANCH  14  29
BRANCH  15  31
HETATM   31  O   UNK N   1      33.314  56.770  45.499  0.00  0.00    -0.358 OA
HETATM   32  H   UNK N   1      33.852  57.448  45.067  0.00  0.00     0.218 HD
ENDBRANCH  15  31
TORSDOF 5
ENDMDL
