MODEL 1
REMARK VINA RESULT:      -6.2      0.000      0.000
REMARK  10 active torsions:
REMARK  status: ('A' for Active; 'I' for Inactive)
REMARK    1  A    between atoms: C_6  and  C_8 
REMARK    2  A    between atoms: C_11  and  O_12 
REMARK    3  A    between atoms: C_17  and  O_18 
REMARK    4  A    between atoms: O_18  and  C_19 
REMARK    5  A    between atoms: C_21  and  C_31 
REMARK    6  A    between atoms: C_22  and  O_23 
REMARK    7  A    between atoms: C_25  and  O_26 
REMARK    8  A    between atoms: C_28  and  O_29 
REMARK    9  A    between atoms: C_31  and  O_32 
REMARK   10  A    between atoms: C_35  and  O_36 
ROOT
HETATM    1  O   UNK N   1      44.334  47.900  49.034  0.00  0.00    -0.287 OA
HETATM    2  C   UNK N   1      43.249  47.357  48.959  0.00  0.00     0.190 A 
HETATM    3  C   UNK N   1      42.393  47.539  47.843  0.00  0.00     0.081 A 
HETATM    4  C   UNK N   1      41.148  46.856  47.866  0.00  0.00     0.095 A 
HETATM    5  O   UNK N   1      40.822  46.069  48.891  0.00  0.00    -0.309 OA
HETATM    6  C   UNK N   1      41.601  45.900  49.959  0.00  0.00     0.090 A 
HETATM    7  C   UNK N   1      42.840  46.551  50.016  0.00  0.00     0.094 A 
HETATM    8  C   UNK N   1      40.224  47.021  46.824  0.00  0.00     0.075 A 
HETATM    9  C   UNK N   1      40.501  47.873  45.750  0.00  0.00     0.077 A 
HETATM   10  C   UNK N   1      41.749  48.521  45.702  0.00  0.00     0.074 A 
HETATM   11  C   UNK N   1      42.697  48.367  46.716  0.00  0.00     0.085 A 
ENDROOT
BRANCH   9  12
HETATM   12  O   UNK N   1      39.545  48.055  44.789  0.00  0.00    -0.318 OA
BRANCH  12  13
HETATM   13  C   UNK N   1      38.560  49.044  44.812  0.00  0.00     0.298 C 
HETATM   14  O   UNK N   1      39.129  50.341  44.893  0.00  0.00    -0.348 OA
HETATM   15  C   UNK N   1      39.850  50.704  43.725  0.00  0.00     0.179 C 
HETATM   16  C   UNK N   1      38.953  50.661  42.461  0.00  0.00     0.180 C 
HETATM   17  C   UNK N   1      38.346  49.259  42.311  0.00  0.00     0.183 C 
HETATM   18  C   UNK N   1      37.599  48.915  43.607  0.00  0.00     0.205 C 
BRANCH  15  19
HETATM   19  C   UNK N   1      40.401  52.121  43.951  0.00  0.00     0.198 C 
BRANCH  19  20
HETATM   20  O   UNK N   1      40.026  52.957  42.889  0.00  0.00    -0.398 OA
HETATM   21  H   UNK N   1      39.448  52.413  42.294  0.00  0.00     0.209 HD
ENDBRANCH  19  20
ENDBRANCH  15  19
BRANCH  16  22
HETATM   22  O   UNK N   1      39.721  50.981  41.328  0.00  0.00    -0.390 OA
HETATM   23  H   UNK N   1      40.104  51.884  41.481  0.00  0.00     0.210 HD
ENDBRANCH  16  22
BRANCH  17  24
HETATM   24  O   UNK N   1      37.462  49.253  41.218  0.00  0.00    -0.390 OA
HETATM   25  H   UNK N   1      36.728  48.623  41.439  0.00  0.00     0.210 HD
ENDBRANCH  17  24
BRANCH  18  26
HETATM   26  O   UNK N   1      37.072  47.616  43.520  0.00  0.00    -0.388 OA
HETATM   27  H   UNK N   1      36.093  47.692  43.663  0.00  0.00     0.210 HD
ENDBRANCH  18  26
ENDBRANCH  12  13
ENDBRANCH   9  12
BRANCH  11  28
HETATM   28  O   UNK N   1      43.862  49.040  46.561  0.00  0.00    -0.360 OA
HETATM   29  H   UNK N   1      44.099  49.626  45.839  0.00  0.00     0.217 HD
ENDBRANCH  11  28
BRANCH   6  30
HETATM   30  C   UNK N   1      41.127  45.024  51.068  0.00  0.00    -0.002 A 
HETATM   31  C   UNK N   1      41.637  45.215  52.365  0.00  0.00     0.017 A 
HETATM   32  C   UNK N   1      41.201  44.414  53.424  0.00  0.00     0.037 A 
HETATM   33  C   UNK N   1      40.265  43.395  53.201  0.00  0.00     0.065 A 
HETATM   34  C   UNK N   1      39.764  43.187  51.914  0.00  0.00     0.037 A 
HETATM   35  C   UNK N   1      40.181  43.997  50.855  0.00  0.00     0.017 A 
BRANCH  33  36
HETATM   36  O   UNK N   1      39.841  42.613  54.215  0.00  0.00    -0.361 OA
HETATM   37  H   UNK N   1      39.003  42.133  54.171  0.00  0.00     0.217 HD
ENDBRANCH  33  36
ENDBRANCH   6  30
TORSDOF 10
ENDMDL
MODEL 2
REMARK VINA RESULT:      -5.8     13.811     16.169
REMARK  10 active torsions:
REMARK  status: ('A' for Active; 'I' for Inactive)
REMARK    1  A    between atoms: C_6  and  C_8 
REMARK    2  A    between atoms: C_11  and  O_12 
REMARK    3  A    between atoms: C_17  and  O_18 
REMARK    4  A    between atoms: O_18  and  C_19 
REMARK    5  A    between atoms: C_21  and  C_31 
REMARK    6  A    between atoms: C_22  and  O_23 
REMARK    7  A    between atoms: C_25  and  O_26 
REMARK    8  A    between atoms: C_28  and  O_29 
REMARK    9  A    between atoms: C_31  and  O_32 
REMARK   10  A    between atoms: C_35  and  O_36 
ROOT
HETATM    1  O   UNK N   1      32.908  43.115  57.125  0.00  0.00    -0.287 OA
HETATM    2  C   UNK N   1      31.707  43.249  57.256  0.00  0.00     0.190 A 
HETATM    3  C   UNK N   1      30.785  42.755  56.299  0.00  0.00     0.081 A 
HETATM    4  C   UNK N   1      29.405  42.972  56.557  0.00  0.00     0.095 A 
HETATM    5  O   UNK N   1      29.011  43.599  57.664  0.00  0.00    -0.309 OA
HETATM    6  C   UNK N   1      29.859  44.091  58.567  0.00  0.00     0.090 A 
HETATM    7  C   UNK N   1      31.237  43.927  58.377  0.00  0.00     0.094 A 
HETATM    8  C   UNK N   1      28.433  42.557  55.636  0.00  0.00     0.075 A 
HETATM    9  C   UNK N   1      28.800  41.937  54.437  0.00  0.00     0.077 A 
HETATM   10  C   UNK N   1      30.163  41.683  54.194  0.00  0.00     0.074 A 
HETATM   11  C   UNK N   1      31.155  42.071  55.098  0.00  0.00     0.085 A 
ENDROOT
BRANCH   9  12
HETATM   12  O   UNK N   1      27.823  41.608  53.538  0.00  0.00    -0.318 OA
BRANCH  12  13
HETATM   13  C   UNK N   1      28.032  40.925  52.339  0.00  0.00     0.298 C 
HETATM   14  O   UNK N   1      27.171  39.805  52.223  0.00  0.00    -0.348 OA
HETATM   15  C   UNK N   1      25.804  40.167  52.094  0.00  0.00     0.179 C 
HETATM   16  C   UNK N   1      25.566  41.073  50.859  0.00  0.00     0.180 C 
HETATM   17  C   UNK N   1      26.452  42.323  50.962  0.00  0.00     0.183 C 
HETATM   18  C   UNK N   1      27.910  41.869  51.120  0.00  0.00     0.205 C 
BRANCH  15  19
HETATM   19  C   UNK N   1      24.996  38.865  51.974  0.00  0.00     0.198 C 
BRANCH  19  20
HETATM   20  O   UNK N   1      24.981  38.430  50.640  0.00  0.00    -0.398 OA
HETATM   21  H   UNK N   1      25.473  39.113  50.116  0.00  0.00     0.209 HD
ENDBRANCH  19  20
ENDBRANCH  15  19
BRANCH  16  22
HETATM   22  O   UNK N   1      24.211  41.443  50.800  0.00  0.00    -0.390 OA
HETATM   23  H   UNK N   1      24.172  42.339  50.374  0.00  0.00     0.210 HD
ENDBRANCH  16  22
BRANCH  17  24
HETATM   24  O   UNK N   1      26.301  43.094  49.797  0.00  0.00    -0.390 OA
HETATM   25  H   UNK N   1      25.730  42.574  49.174  0.00  0.00     0.210 HD
ENDBRANCH  17  24
BRANCH  18  26
HETATM   26  O   UNK N   1      28.743  42.991  51.266  0.00  0.00    -0.388 OA
HETATM   27  H   UNK N   1      28.923  43.092  52.236  0.00  0.00     0.210 HD
ENDBRANCH  18  26
ENDBRANCH  12  13
ENDBRANCH   9  12
BRANCH  11  28
HETATM   28  O   UNK N   1      32.432  41.773  54.756  0.00  0.00    -0.360 OA
HETATM   29  H   UNK N   1      32.875  41.990  53.933  0.00  0.00     0.217 HD
ENDBRANCH  11  28
BRANCH   6  30
HETATM   30  C   UNK N   1      29.314  44.807  59.755  0.00  0.00    -0.002 A 
HETATM   31  C   UNK N   1      30.125  45.733  60.436  0.00  0.00     0.017 A 
HETATM   32  C   UNK N   1      29.635  46.425  61.547  0.00  0.00     0.037 A 
HETATM   33  C   UNK N   1      28.334  46.188  62.009  0.00  0.00     0.065 A 
HETATM   34  C   UNK N   1      27.526  45.259  61.351  0.00  0.00     0.037 A 
HETATM   35  C   UNK N   1      28.003  44.578  60.228  0.00  0.00     0.017 A 
BRANCH  33  36
HETATM   36  O   UNK N   1      27.853  46.847  63.084  0.00  0.00    -0.361 OA
HETATM   37  H   UNK N   1      26.936  46.745  63.374  0.00  0.00     0.217 HD
ENDBRANCH  33  36
ENDBRANCH   6  30
TORSDOF 10
ENDMDL
MODEL 3
REMARK VINA RESULT:      -5.8     14.553     16.582
REMARK  10 active torsions:
REMARK  status: ('A' for Active; 'I' for Inactive)
REMARK    1  A    between atoms: C_6  and  C_8 
REMARK    2  A    between atoms: C_11  and  O_12 
REMARK    3  A    between atoms: C_17  and  O_18 
REMARK    4  A    between atoms: O_18  and  C_19 
REMARK    5  A    between atoms: C_21  and  C_31 
REMARK    6  A    between atoms: C_22  and  O_23 
REMARK    7  A    between atoms: C_25  and  O_26 
REMARK    8  A    between atoms: C_28  and  O_29 
REMARK    9  A    between atoms: C_31  and  O_32 
REMARK   10  A    between atoms: C_35  and  O_36 
ROOT
HETATM    1  O   UNK N   1      31.559  43.569  60.686  0.00  0.00    -0.287 OA
HETATM    2  C   UNK N   1      30.885  44.046  59.794  0.00  0.00     0.190 A 
HETATM    3  C   UNK N   1      30.250  43.240  58.816  0.00  0.00     0.081 A 
HETATM    4  C   UNK N   1      29.490  43.909  57.820  0.00  0.00     0.095 A 
HETATM    5  O   UNK N   1      29.374  45.237  57.830  0.00  0.00    -0.309 OA
HETATM    6  C   UNK N   1      29.978  46.016  58.726  0.00  0.00     0.090 A 
HETATM    7  C   UNK N   1      30.756  45.430  59.733  0.00  0.00     0.094 A 
HETATM    8  C   UNK N   1      28.871  43.187  56.789  0.00  0.00     0.075 A 
HETATM    9  C   UNK N   1      29.003  41.797  56.709  0.00  0.00     0.077 A 
HETATM   10  C   UNK N   1      29.722  41.125  57.714  0.00  0.00     0.074 A 
HETATM   11  C   UNK N   1      30.338  41.813  58.763  0.00  0.00     0.085 A 
ENDROOT
BRANCH   9  12
HETATM   12  O   UNK N   1      28.439  41.141  55.650  0.00  0.00    -0.318 OA
BRANCH  12  13
HETATM   13  C   UNK N   1      27.152  41.367  55.158  0.00  0.00     0.298 C 
HETATM   14  O   UNK N   1      27.125  42.466  54.262  0.00  0.00    -0.348 OA
HETATM   15  C   UNK N   1      27.837  42.219  53.059  0.00  0.00     0.179 C 
HETATM   16  C   UNK N   1      27.277  40.985  52.306  0.00  0.00     0.180 C 
HETATM   17  C   UNK N   1      27.325  39.757  53.227  0.00  0.00     0.183 C 
HETATM   18  C   UNK N   1      26.559  40.091  54.515  0.00  0.00     0.205 C 
BRANCH  15  19
HETATM   19  C   UNK N   1      27.719  43.483  52.192  0.00  0.00     0.198 C 
BRANCH  19  20
HETATM   20  O   UNK N   1      28.883  43.648  51.425  0.00  0.00    -0.398 OA
HETATM   21  H   UNK N   1      28.873  42.930  50.741  0.00  0.00     0.209 HD
ENDBRANCH  19  20
ENDBRANCH  15  19
BRANCH  16  22
HETATM   22  O   UNK N   1      28.041  40.753  51.149  0.00  0.00    -0.390 OA
HETATM   23  H   UNK N   1      27.958  39.787  50.934  0.00  0.00     0.210 HD
ENDBRANCH  16  22
BRANCH  17  24
HETATM   24  O   UNK N   1      26.731  38.665  52.572  0.00  0.00    -0.390 OA
HETATM   25  H   UNK N   1      26.768  38.852  51.598  0.00  0.00     0.210 HD
ENDBRANCH  17  24
BRANCH  18  26
HETATM   26  O   UNK N   1      26.625  39.003  55.401  0.00  0.00    -0.388 OA
HETATM   27  H   UNK N   1      25.876  39.107  56.042  0.00  0.00     0.210 HD
ENDBRANCH  18  26
ENDBRANCH  12  13
ENDBRANCH   9  12
BRANCH  11  28
HETATM   28  O   UNK N   1      31.002  41.059  59.672  0.00  0.00    -0.360 OA
HETATM   29  H   UNK N   1      31.685  41.354  60.278  0.00  0.00     0.217 HD
ENDBRANCH  11  28
BRANCH   6  30
HETATM   30  C   UNK N   1      29.811  47.494  58.628  0.00  0.00    -0.002 A 
HETATM   31  C   UNK N   1      29.381  48.217  59.754  0.00  0.00     0.017 A 
HETATM   32  C   UNK N   1      29.226  49.605  59.692  0.00  0.00     0.037 A 
HETATM   33  C   UNK N   1      29.478  50.290  58.495  0.00  0.00     0.065 A 
HETATM   34  C   UNK N   1      29.889  49.580  57.366  0.00  0.00     0.037 A 
HETATM   35  C   UNK N   1      30.065  48.195  57.428  0.00  0.00     0.017 A 
BRANCH  33  36
HETATM   36  O   UNK N   1      29.327  51.629  58.422  0.00  0.00    -0.361 OA
HETATM   37  H   UNK N   1      29.761  52.152  57.735  0.00  0.00     0.217 HD
ENDBRANCH  33  36
ENDBRANCH   6  30
TORSDOF 10
ENDMDL
MODEL 4
REMARK VINA RESULT:      -5.7      2.172      2.669
REMARK  10 active torsions:
REMARK  status: ('A' for Active; 'I' for Inactive)
REMARK    1  A    between atoms: C_6  and  C_8 
REMARK    2  A    between atoms: C_11  and  O_12 
REMARK    3  A    between atoms: C_17  and  O_18 
REMARK    4  A    between atoms: O_18  and  C_19 
REMARK    5  A    between atoms: C_21  and  C_31 
REMARK    6  A    between atoms: C_22  and  O_23 
REMARK    7  A    between atoms: C_25  and  O_26 
REMARK    8  A    between atoms: C_28  and  O_29 
REMARK    9  A    between atoms: C_31  and  O_32 
REMARK   10  A    between atoms: C_35  and  O_36 
ROOT
HETATM    1  O   UNK N   1      42.459  41.944  46.648  0.00  0.00    -0.287 OA
HETATM    2  C   UNK N   1      42.078  42.929  47.251  0.00  0.00     0.190 A 
HETATM    3  C   UNK N   1      41.665  44.109  46.582  0.00  0.00     0.081 A 
HETATM    4  C   UNK N   1      41.242  45.197  47.391  0.00  0.00     0.095 A 
HETATM    5  O   UNK N   1      41.224  45.090  48.719  0.00  0.00    -0.309 OA
HETATM    6  C   UNK N   1      41.627  43.999  49.371  0.00  0.00     0.090 A 
HETATM    7  C   UNK N   1      42.070  42.888  48.642  0.00  0.00     0.094 A 
HETATM    8  C   UNK N   1      40.865  46.415  46.808  0.00  0.00     0.075 A 
HETATM    9  C   UNK N   1      40.913  46.591  45.422  0.00  0.00     0.077 A 
HETATM   10  C   UNK N   1      41.294  45.504  44.613  0.00  0.00     0.074 A 
HETATM   11  C   UNK N   1      41.661  44.273  45.161  0.00  0.00     0.085 A 
ENDROOT
BRANCH   9  12
HETATM   12  O   UNK N   1      40.600  47.816  44.901  0.00  0.00    -0.318 OA
BRANCH  12  13
HETATM   13  C   UNK N   1      39.583  48.651  45.367  0.00  0.00     0.298 C 
HETATM   14  O   UNK N   1      39.840  50.009  45.052  0.00  0.00    -0.348 OA
HETATM   15  C   UNK N   1      39.792  50.274  43.658  0.00  0.00     0.179 C 
HETATM   16  C   UNK N   1      38.413  49.905  43.053  0.00  0.00     0.180 C 
HETATM   17  C   UNK N   1      38.109  48.426  43.336  0.00  0.00     0.183 C 
HETATM   18  C   UNK N   1      38.197  48.198  44.851  0.00  0.00     0.205 C 
BRANCH  15  19
HETATM   19  C   UNK N   1      40.083  51.771  43.467  0.00  0.00     0.198 C 
BRANCH  19  20
HETATM   20  O   UNK N   1      40.024  52.102  42.105  0.00  0.00    -0.398 OA
HETATM   21  H   UNK N   1      39.505  52.945  42.043  0.00  0.00     0.209 HD
ENDBRANCH  19  20
ENDBRANCH  15  19
BRANCH  16  22
HETATM   22  O   UNK N   1      38.429  50.140  41.667  0.00  0.00    -0.390 OA
HETATM   23  H   UNK N   1      38.310  49.260  41.221  0.00  0.00     0.210 HD
ENDBRANCH  16  22
BRANCH  17  24
HETATM   24  O   UNK N   1      36.820  48.122  42.867  0.00  0.00    -0.390 OA
HETATM   25  H   UNK N   1      36.219  48.099  43.656  0.00  0.00     0.210 HD
ENDBRANCH  17  24
BRANCH  18  26
HETATM   26  O   UNK N   1      37.971  46.841  45.140  0.00  0.00    -0.388 OA
HETATM   27  H   UNK N   1      36.988  46.719  45.202  0.00  0.00     0.210 HD
ENDBRANCH  18  26
ENDBRANCH  12  13
ENDBRANCH   9  12
BRANCH  11  28
HETATM   28  O   UNK N   1      42.008  43.301  44.283  0.00  0.00    -0.360 OA
HETATM   29  H   UNK N   1      41.675  42.402  44.257  0.00  0.00     0.217 HD
ENDBRANCH  11  28
BRANCH   6  30
HETATM   30  C   UNK N   1      41.598  43.996  50.861  0.00  0.00    -0.002 A 
HETATM   31  C   UNK N   1      41.980  45.154  51.562  0.00  0.00     0.017 A 
HETATM   32  C   UNK N   1      41.952  45.180  52.959  0.00  0.00     0.037 A 
HETATM   33  C   UNK N   1      41.564  44.042  53.679  0.00  0.00     0.065 A 
HETATM   34  C   UNK N   1      41.199  42.882  52.994  0.00  0.00     0.037 A 
HETATM   35  C   UNK N   1      41.205  42.856  51.597  0.00  0.00     0.017 A 
BRANCH  33  36
HETATM   36  O   UNK N   1      41.539  44.055  55.028  0.00  0.00    -0.361 OA
HETATM   37  H   UNK N   1      40.909  44.601  55.519  0.00  0.00     0.217 HD
ENDBRANCH  33  36
ENDBRANCH   6  30
TORSDOF 10
ENDMDL
MODEL 5
REMARK VINA RESULT:      -5.7     14.294     18.029
REMARK  10 active torsions:
REMARK  status: ('A' for Active; 'I' for Inactive)
REMARK    1  A    between atoms: C_6  and  C_8 
REMARK    2  A    between atoms: C_11  and  O_12 
REMARK    3  A    between atoms: C_17  and  O_18 
REMARK    4  A    between atoms: O_18  and  C_19 
REMARK    5  A    between atoms: C_21  and  C_31 
REMARK    6  A    between atoms: C_22  and  O_23 
REMARK    7  A    between atoms: C_25  and  O_26 
REMARK    8  A    between atoms: C_28  and  O_29 
REMARK    9  A    between atoms: C_31  and  O_32 
REMARK   10  A    between atoms: C_35  and  O_36 
ROOT
HETATM    1  O   UNK N   1      30.218  42.624  63.232  0.00  0.00    -0.287 OA
HETATM    2  C   UNK N   1      31.050  42.842  62.373  0.00  0.00     0.190 A 
HETATM    3  C   UNK N   1      32.343  43.335  62.685  0.00  0.00     0.081 A 
HETATM    4  C   UNK N   1      33.230  43.554  61.597  0.00  0.00     0.095 A 
HETATM    5  O   UNK N   1      32.854  43.287  60.347  0.00  0.00    -0.309 OA
HETATM    6  C   UNK N   1      31.639  42.844  60.029  0.00  0.00     0.090 A 
HETATM    7  C   UNK N   1      30.702  42.614  61.046  0.00  0.00     0.094 A 
HETATM    8  C   UNK N   1      34.509  44.086  61.817  0.00  0.00     0.075 A 
HETATM    9  C   UNK N   1      34.932  44.427  63.105  0.00  0.00     0.077 A 
HETATM   10  C   UNK N   1      34.072  44.174  64.190  0.00  0.00     0.074 A 
HETATM   11  C   UNK N   1      32.798  43.633  64.008  0.00  0.00     0.085 A 
ENDROOT
BRANCH   9  12
HETATM   12  O   UNK N   1      36.162  45.003  63.266  0.00  0.00    -0.318 OA
BRANCH  12  13
HETATM   13  C   UNK N   1      36.734  45.932  62.395  0.00  0.00     0.298 C 
HETATM   14  O   UNK N   1      35.997  47.144  62.371  0.00  0.00    -0.348 OA
HETATM   15  C   UNK N   1      36.056  47.852  63.600  0.00  0.00     0.179 C 
HETATM   16  C   UNK N   1      37.515  48.197  63.993  0.00  0.00     0.180 C 
HETATM   17  C   UNK N   1      38.343  46.906  64.071  0.00  0.00     0.183 C 
HETATM   18  C   UNK N   1      38.225  46.176  62.726  0.00  0.00     0.205 C 
BRANCH  15  19
HETATM   19  C   UNK N   1      35.224  49.133  63.428  0.00  0.00     0.198 C 
BRANCH  19  20
HETATM   20  O   UNK N   1      34.778  49.587  64.678  0.00  0.00    -0.398 OA
HETATM   21  H   UNK N   1      35.172  48.979  65.355  0.00  0.00     0.209 HD
ENDBRANCH  19  20
ENDBRANCH  15  19
BRANCH  16  22
HETATM   22  O   UNK N   1      37.525  48.854  65.236  0.00  0.00    -0.390 OA
HETATM   23  H   UNK N   1      38.341  49.419  65.260  0.00  0.00     0.210 HD
ENDBRANCH  16  22
BRANCH  17  24
HETATM   24  O   UNK N   1      39.684  47.233  64.336  0.00  0.00    -0.390 OA
HETATM   25  H   UNK N   1      40.093  47.511  63.476  0.00  0.00     0.210 HD
ENDBRANCH  17  24
BRANCH  18  26
HETATM   26  O   UNK N   1      38.934  44.964  62.780  0.00  0.00    -0.388 OA
HETATM   27  H   UNK N   1      39.178  44.815  63.730  0.00  0.00     0.210 HD
ENDBRANCH  18  26
ENDBRANCH  12  13
ENDBRANCH   9  12
BRANCH  11  28
HETATM   28  O   UNK N   1      32.061  43.434  65.127  0.00  0.00    -0.360 OA
HETATM   29  H   UNK N   1      32.184  42.747  65.785  0.00  0.00     0.217 HD
ENDBRANCH  11  28
BRANCH   6  30
HETATM   30  C   UNK N   1      31.308  42.609  58.595  0.00  0.00    -0.002 A 
HETATM   31  C   UNK N   1      32.131  43.161  57.597  0.00  0.00     0.017 A 
HETATM   32  C   UNK N   1      31.849  42.947  56.244  0.00  0.00     0.037 A 
HETATM   33  C   UNK N   1      30.727  42.196  55.867  0.00  0.00     0.065 A 
HETATM   34  C   UNK N   1      29.894  41.657  56.850  0.00  0.00     0.037 A 
HETATM   35  C   UNK N   1      30.182  41.851  58.203  0.00  0.00     0.017 A 
BRANCH  33  36
HETATM   36  O   UNK N   1      30.443  41.988  54.565  0.00  0.00    -0.361 OA
HETATM   37  H   UNK N   1      30.574  42.679  53.900  0.00  0.00     0.217 HD
ENDBRANCH  33  36
ENDBRANCH   6  30
TORSDOF 10
ENDMDL
MODEL 6
REMARK VINA RESULT:      -5.6     14.089     18.273
REMARK  10 active torsions:
REMARK  status: ('A' for Active; 'I' for Inactive)
REMARK    1  A    between atoms: C_6  and  C_8 
REMARK    2  A    between atoms: C_11  and  O_12 
REMARK    3  A    between atoms: C_17  and  O_18 
REMARK    4  A    between atoms: O_18  and  C_19 
REMARK    5  A    between atoms: C_21  and  C_31 
REMARK    6  A    between atoms: C_22  and  O_23 
REMARK    7  A    between atoms: C_25  and  O_26 
REMARK    8  A    between atoms: C_28  and  O_29 
REMARK    9  A    between atoms: C_31  and  O_32 
REMARK   10  A    between atoms: C_35  and  O_36 
ROOT
HETATM    1  O   UNK N   1      29.335  42.258  62.653  0.00  0.00    -0.287 OA
HETATM    2  C   UNK N   1      30.268  42.504  61.915  0.00  0.00     0.190 A 
HETATM    3  C   UNK N   1      31.509  42.985  62.404  0.00  0.00     0.081 A 
HETATM    4  C   UNK N   1      32.527  43.240  61.446  0.00  0.00     0.095 A 
HETATM    5  O   UNK N   1      32.314  43.014  60.150  0.00  0.00    -0.309 OA
HETATM    6  C   UNK N   1      31.150  42.583  59.665  0.00  0.00     0.090 A 
HETATM    7  C   UNK N   1      30.093  42.321  60.547  0.00  0.00     0.094 A 
HETATM    8  C   UNK N   1      33.766  43.762  61.843  0.00  0.00     0.075 A 
HETATM    9  C   UNK N   1      34.021  44.060  63.186  0.00  0.00     0.077 A 
HETATM   10  C   UNK N   1      33.031  43.773  64.144  0.00  0.00     0.074 A 
HETATM   11  C   UNK N   1      31.792  43.239  63.783  0.00  0.00     0.085 A 
ENDROOT
BRANCH   9  12
HETATM   12  O   UNK N   1      35.218  44.630  63.520  0.00  0.00    -0.318 OA
BRANCH  12  13
HETATM   13  C   UNK N   1      35.389  45.650  64.457  0.00  0.00     0.298 C 
HETATM   14  O   UNK N   1      36.624  45.524  65.143  0.00  0.00    -0.348 OA
HETATM   15  C   UNK N   1      37.748  45.737  64.303  0.00  0.00     0.179 C 
HETATM   16  C   UNK N   1      37.716  47.141  63.647  0.00  0.00     0.180 C 
HETATM   17  C   UNK N   1      36.409  47.308  62.857  0.00  0.00     0.183 C 
HETATM   18  C   UNK N   1      35.234  47.046  63.810  0.00  0.00     0.205 C 
BRANCH  15  19
HETATM   19  C   UNK N   1      39.005  45.575  65.173  0.00  0.00     0.198 C 
BRANCH  19  20
HETATM   20  O   UNK N   1      40.101  45.222  64.371  0.00  0.00    -0.398 OA
HETATM   21  H   UNK N   1      39.845  44.391  63.894  0.00  0.00     0.209 HD
ENDBRANCH  19  20
ENDBRANCH  15  19
BRANCH  16  22
HETATM   22  O   UNK N   1      38.821  47.287  62.790  0.00  0.00    -0.390 OA
HETATM   23  H   UNK N   1      38.661  48.100  62.244  0.00  0.00     0.210 HD
ENDBRANCH  16  22
BRANCH  17  24
HETATM   24  O   UNK N   1      36.343  48.614  62.343  0.00  0.00    -0.390 OA
HETATM   25  H   UNK N   1      36.375  48.541  61.354  0.00  0.00     0.210 HD
ENDBRANCH  17  24
BRANCH  18  26
HETATM   26  O   UNK N   1      34.022  47.143  63.106  0.00  0.00    -0.388 OA
HETATM   27  H   UNK N   1      33.848  46.252  62.706  0.00  0.00     0.210 HD
ENDBRANCH  18  26
ENDBRANCH  12  13
ENDBRANCH   9  12
BRANCH  11  28
HETATM   28  O   UNK N   1      30.919  43.004  64.792  0.00  0.00    -0.360 OA
HETATM   29  H   UNK N   1      30.440  43.659  65.305  0.00  0.00     0.217 HD
ENDBRANCH  11  28
BRANCH   6  30
HETATM   30  C   UNK N   1      31.005  42.395  58.194  0.00  0.00    -0.002 A 
HETATM   31  C   UNK N   1      31.947  42.979  57.327  0.00  0.00     0.017 A 
HETATM   32  C   UNK N   1      31.839  42.810  55.943  0.00  0.00     0.037 A 
HETATM   33  C   UNK N   1      30.777  42.074  55.403  0.00  0.00     0.065 A 
HETATM   34  C   UNK N   1      29.827  41.504  56.253  0.00  0.00     0.037 A 
HETATM   35  C   UNK N   1      29.940  41.652  57.637  0.00  0.00     0.017 A 
BRANCH  33  36
HETATM   36  O   UNK N   1      30.661  41.909  54.068  0.00  0.00    -0.361 OA
HETATM   37  H   UNK N   1      30.783  41.045  53.650  0.00  0.00     0.217 HD
ENDBRANCH  33  36
ENDBRANCH   6  30
TORSDOF 10
ENDMDL
MODEL 7
REMARK VINA RESULT:      -5.5     14.214     16.540
REMARK  10 active torsions:
REMARK  status: ('A' for Active; 'I' for Inactive)
REMARK    1  A    between atoms: C_6  and  C_8 
REMARK    2  A    between atoms: C_11  and  O_12 
REMARK    3  A    between atoms: C_17  and  O_18 
REMARK    4  A    between atoms: O_18  and  C_19 
REMARK    5  A    between atoms: C_21  and  C_31 
REMARK    6  A    between atoms: C_22  and  O_23 
REMARK    7  A    between atoms: C_25  and  O_26 
REMARK    8  A    between atoms: C_28  and  O_29 
REMARK    9  A    between atoms: C_31  and  O_32 
REMARK   10  A    between atoms: C_35  and  O_36 
ROOT
HETATM    1  O   UNK N   1      31.439  42.289  59.963  0.00  0.00    -0.287 OA
HETATM    2  C   UNK N   1      30.725  42.780  59.111  0.00  0.00     0.190 A 
HETATM    3  C   UNK N   1      30.292  44.128  59.178  0.00  0.00     0.081 A 
HETATM    4  C   UNK N   1      29.457  44.593  58.127  0.00  0.00     0.095 A 
HETATM    5  O   UNK N   1      29.120  43.788  57.120  0.00  0.00    -0.309 OA
HETATM    6  C   UNK N   1      29.498  42.512  57.046  0.00  0.00     0.090 A 
HETATM    7  C   UNK N   1      30.312  41.977  58.053  0.00  0.00     0.094 A 
HETATM    8  C   UNK N   1      28.947  45.898  58.145  0.00  0.00     0.075 A 
HETATM    9  C   UNK N   1      29.233  46.765  59.204  0.00  0.00     0.077 A 
HETATM   10  C   UNK N   1      30.091  46.324  60.228  0.00  0.00     0.074 A 
HETATM   11  C   UNK N   1      30.628  45.035  60.233  0.00  0.00     0.085 A 
ENDROOT
BRANCH   9  12
HETATM   12  O   UNK N   1      28.661  48.008  59.213  0.00  0.00    -0.318 OA
BRANCH  12  13
HETATM   13  C   UNK N   1      29.350  49.208  59.390  0.00  0.00     0.298 C 
HETATM   14  O   UNK N   1      30.250  49.453  58.322  0.00  0.00    -0.348 OA
HETATM   15  C   UNK N   1      29.593  49.697  57.088  0.00  0.00     0.179 C 
HETATM   16  C   UNK N   1      28.633  50.910  57.181  0.00  0.00     0.180 C 
HETATM   17  C   UNK N   1      27.611  50.671  58.302  0.00  0.00     0.183 C 
HETATM   18  C   UNK N   1      28.379  50.393  59.602  0.00  0.00     0.205 C 
BRANCH  15  19
HETATM   19  C   UNK N   1      30.682  49.947  56.033  0.00  0.00     0.198 C 
BRANCH  19  20
HETATM   20  O   UNK N   1      30.994  51.314  55.979  0.00  0.00    -0.398 OA
HETATM   21  H   UNK N   1      30.135  51.794  55.850  0.00  0.00     0.209 HD
ENDBRANCH  19  20
ENDBRANCH  15  19
BRANCH  16  22
HETATM   22  O   UNK N   1      27.972  51.083  55.952  0.00  0.00    -0.390 OA
HETATM   23  H   UNK N   1      28.109  52.027  55.677  0.00  0.00     0.210 HD
ENDBRANCH  16  22
BRANCH  17  24
HETATM   24  O   UNK N   1      26.804  51.812  58.443  0.00  0.00    -0.390 OA
HETATM   25  H   UNK N   1      27.274  52.429  59.062  0.00  0.00     0.210 HD
ENDBRANCH  17  24
BRANCH  18  26
HETATM   26  O   UNK N   1      27.472  50.122  60.640  0.00  0.00    -0.388 OA
HETATM   27  H   UNK N   1      27.913  49.473  61.247  0.00  0.00     0.210 HD
ENDBRANCH  18  26
ENDBRANCH  12  13
ENDBRANCH   9  12
BRANCH  11  28
HETATM   28  O   UNK N   1      31.441  44.723  61.271  0.00  0.00    -0.360 OA
HETATM   29  H   UNK N   1      31.990  45.328  61.776  0.00  0.00     0.217 HD
ENDBRANCH  11  28
BRANCH   6  30
HETATM   30  C   UNK N   1      29.037  41.687  55.894  0.00  0.00    -0.002 A 
HETATM   31  C   UNK N   1      28.273  42.287  54.876  0.00  0.00     0.017 A 
HETATM   32  C   UNK N   1      27.837  41.538  53.779  0.00  0.00     0.037 A 
HETATM   33  C   UNK N   1      28.138  40.173  53.692  0.00  0.00     0.065 A 
HETATM   34  C   UNK N   1      28.881  39.563  54.705  0.00  0.00     0.037 A 
HETATM   35  C   UNK N   1      29.337  40.310  55.794  0.00  0.00     0.017 A 
BRANCH  33  36
HETATM   36  O   UNK N   1      27.717  39.440  52.640  0.00  0.00    -0.361 OA
HETATM   37  H   UNK N   1      27.150  39.816  51.953  0.00  0.00     0.217 HD
ENDBRANCH  33  36
ENDBRANCH   6  30
TORSDOF 10
ENDMDL
MODEL 8
REMARK VINA RESULT:      -5.5     13.692     16.339
REMARK  10 active torsions:
REMARK  status: ('A' for Active; 'I' for Inactive)
REMARK    1  A    between atoms: C_6  and  C_8 
REMARK    2  A    between atoms: C_11  and  O_12 
REMARK    3  A    between atoms: C_17  and  O_18 
REMARK    4  A    between atoms: O_18  and  C_19 
REMARK    5  A    between atoms: C_21  and  C_31 
REMARK    6  A    between atoms: C_22  and  O_23 
REMARK    7  A    between atoms: C_25  and  O_26 
REMARK    8  A    between atoms: C_28  and  O_29 
REMARK    9  A    between atoms: C_31  and  O_32 
REMARK   10  A    between atoms: C_35  and  O_36 
ROOT
HETATM    1  O   UNK N   1      28.441  39.935  59.955  0.00  0.00    -0.287 OA
HETATM    2  C   UNK N   1      29.135  40.668  59.277  0.00  0.00     0.190 A 
HETATM    3  C   UNK N   1      28.781  41.028  57.952  0.00  0.00     0.081 A 
HETATM    4  C   UNK N   1      29.671  41.888  57.256  0.00  0.00     0.095 A 
HETATM    5  O   UNK N   1      30.777  42.344  57.844  0.00  0.00    -0.309 OA
HETATM    6  C   UNK N   1      31.141  42.003  59.080  0.00  0.00     0.090 A 
HETATM    7  C   UNK N   1      30.320  41.147  59.826  0.00  0.00     0.094 A 
HETATM    8  C   UNK N   1      29.417  42.251  55.925  0.00  0.00     0.075 A 
HETATM    9  C   UNK N   1      28.295  41.761  55.250  0.00  0.00     0.077 A 
HETATM   10  C   UNK N   1      27.389  40.940  55.947  0.00  0.00     0.074 A 
HETATM   11  C   UNK N   1      27.605  40.572  57.277  0.00  0.00     0.085 A 
ENDROOT
BRANCH   9  12
HETATM   12  O   UNK N   1      28.122  42.088  53.934  0.00  0.00    -0.318 OA
BRANCH  12  13
HETATM   13  C   UNK N   1      28.432  41.260  52.853  0.00  0.00     0.298 C 
HETATM   14  O   UNK N   1      27.601  40.112  52.823  0.00  0.00    -0.348 OA
HETATM   15  C   UNK N   1      26.242  40.417  52.549  0.00  0.00     0.179 C 
HETATM   16  C   UNK N   1      26.082  41.149  51.192  0.00  0.00     0.180 C 
HETATM   17  C   UNK N   1      26.936  42.426  51.194  0.00  0.00     0.183 C 
HETATM   18  C   UNK N   1      28.385  42.035  51.515  0.00  0.00     0.205 C 
BRANCH  15  19
HETATM   19  C   UNK N   1      25.468  39.090  52.544  0.00  0.00     0.198 C 
BRANCH  19  20
HETATM   20  O   UNK N   1      25.281  38.648  51.225  0.00  0.00    -0.398 OA
HETATM   21  H   UNK N   1      24.302  38.556  51.095  0.00  0.00     0.209 HD
ENDBRANCH  19  20
ENDBRANCH  15  19
BRANCH  16  22
HETATM   22  O   UNK N   1      24.729  41.472  50.988  0.00  0.00    -0.390 OA
HETATM   23  H   UNK N   1      24.192  40.840  51.535  0.00  0.00     0.210 HD
ENDBRANCH  16  22
BRANCH  17  24
HETATM   24  O   UNK N   1      26.859  43.034  49.930  0.00  0.00    -0.390 OA
HETATM   25  H   UNK N   1      26.004  43.536  49.898  0.00  0.00     0.210 HD
ENDBRANCH  17  24
BRANCH  18  26
HETATM   26  O   UNK N   1      29.185  43.188  51.572  0.00  0.00    -0.388 OA
HETATM   27  H   UNK N   1      28.575  43.956  51.721  0.00  0.00     0.210 HD
ENDBRANCH  18  26
ENDBRANCH  12  13
ENDBRANCH   9  12
BRANCH  11  28
HETATM   28  O   UNK N   1      26.664  39.778  57.844  0.00  0.00    -0.360 OA
HETATM   29  H   UNK N   1      26.801  38.918  58.247  0.00  0.00     0.217 HD
ENDBRANCH  11  28
BRANCH   6  30
HETATM   30  C   UNK N   1      32.416  42.541  59.631  0.00  0.00    -0.002 A 
HETATM   31  C   UNK N   1      33.500  42.774  58.765  0.00  0.00     0.017 A 
HETATM   32  C   UNK N   1      34.704  43.288  59.256  0.00  0.00     0.037 A 
HETATM   33  C   UNK N   1      34.852  43.557  60.623  0.00  0.00     0.065 A 
HETATM   34  C   UNK N   1      33.788  43.314  61.494  0.00  0.00     0.037 A 
HETATM   35  C   UNK N   1      32.576  42.820  61.007  0.00  0.00     0.017 A 
BRANCH  33  36
HETATM   36  O   UNK N   1      36.012  44.048  61.107  0.00  0.00    -0.361 OA
HETATM   37  H   UNK N   1      36.858  43.875  60.672  0.00  0.00     0.217 HD
ENDBRANCH  33  36
ENDBRANCH   6  30
TORSDOF 10
ENDMDL
MODEL 9
REMARK VINA RESULT:      -5.5     10.162     13.722
REMARK  10 active torsions:
REMARK  status: ('A' for Active; 'I' for Inactive)
REMARK    1  A    between atoms: C_6  and  C_8 
REMARK    2  A    between atoms: C_11  and  O_12 
REMARK    3  A    between atoms: C_17  and  O_18 
REMARK    4  A    between atoms: O_18  and  C_19 
REMARK    5  A    between atoms: C_21  and  C_31 
REMARK    6  A    between atoms: C_22  and  O_23 
REMARK    7  A    between atoms: C_25  and  O_26 
REMARK    8  A    between atoms: C_28  and  O_29 
REMARK    9  A    between atoms: C_31  and  O_32 
REMARK   10  A    between atoms: C_35  and  O_36 
ROOT
HETATM    1  O   UNK N   1      33.183  49.654  43.283  0.00  0.00    -0.287 OA
HETATM    2  C   UNK N   1      32.675  50.747  43.126  0.00  0.00     0.190 A 
HETATM    3  C   UNK N   1      31.652  50.972  42.170  0.00  0.00     0.081 A 
HETATM    4  C   UNK N   1      31.135  52.292  42.075  0.00  0.00     0.095 A 
HETATM    5  O   UNK N   1      31.590  53.260  42.869  0.00  0.00    -0.309 OA
HETATM    6  C   UNK N   1      32.565  53.077  43.760  0.00  0.00     0.090 A 
HETATM    7  C   UNK N   1      33.134  51.805  43.904  0.00  0.00     0.094 A 
HETATM    8  C   UNK N   1      30.157  52.608  41.121  0.00  0.00     0.075 A 
HETATM    9  C   UNK N   1      29.682  51.637  40.233  0.00  0.00     0.077 A 
HETATM   10  C   UNK N   1      30.162  50.319  40.349  0.00  0.00     0.074 A 
HETATM   11  C   UNK N   1      31.125  49.968  41.297  0.00  0.00     0.085 A 
ENDROOT
BRANCH   9  12
HETATM   12  O   UNK N   1      28.777  52.004  39.276  0.00  0.00    -0.318 OA
BRANCH  12  13
HETATM   13  C   UNK N   1      27.391  51.885  39.393  0.00  0.00     0.298 C 
HETATM   14  O   UNK N   1      26.881  52.730  40.411  0.00  0.00    -0.348 OA
HETATM   15  C   UNK N   1      27.009  54.110  40.102  0.00  0.00     0.179 C 
HETATM   16  C   UNK N   1      26.281  54.471  38.782  0.00  0.00     0.180 C 
HETATM   17  C   UNK N   1      26.832  53.605  37.639  0.00  0.00     0.183 C 
HETATM   18  C   UNK N   1      26.685  52.131  38.039  0.00  0.00     0.205 C 
BRANCH  15  19
HETATM   19  C   UNK N   1      26.417  54.898  41.281  0.00  0.00     0.198 C 
BRANCH  19  20
HETATM   20  O   UNK N   1      25.041  55.091  41.087  0.00  0.00    -0.398 OA
HETATM   21  H   UNK N   1      24.605  54.903  41.957  0.00  0.00     0.209 HD
ENDBRANCH  19  20
ENDBRANCH  15  19
BRANCH  16  22
HETATM   22  O   UNK N   1      26.475  55.834  38.495  0.00  0.00    -0.390 OA
HETATM   23  H   UNK N   1      25.597  56.200  38.211  0.00  0.00     0.210 HD
ENDBRANCH  16  22
BRANCH  17  24
HETATM   24  O   UNK N   1      26.105  53.871  36.467  0.00  0.00    -0.390 OA
HETATM   25  H   UNK N   1      25.156  53.991  36.732  0.00  0.00     0.210 HD
ENDBRANCH  17  24
BRANCH  18  26
HETATM   26  O   UNK N   1      27.225  51.312  37.033  0.00  0.00    -0.388 OA
HETATM   27  H   UNK N   1      27.835  50.670  37.480  0.00  0.00     0.210 HD
ENDBRANCH  18  26
ENDBRANCH  12  13
ENDBRANCH   9  12
BRANCH  11  28
HETATM   28  O   UNK N   1      31.510  48.669  41.315  0.00  0.00    -0.360 OA
HETATM   29  H   UNK N   1      32.398  48.332  41.453  0.00  0.00     0.217 HD
ENDBRANCH  11  28
BRANCH   6  30
HETATM   30  C   UNK N   1      33.025  54.236  44.576  0.00  0.00    -0.002 A 
HETATM   31  C   UNK N   1      32.269  54.639  45.692  0.00  0.00     0.017 A 
HETATM   32  C   UNK N   1      32.684  55.716  46.480  0.00  0.00     0.037 A 
HETATM   33  C   UNK N   1      33.849  56.423  46.153  0.00  0.00     0.065 A 
HETATM   34  C   UNK N   1      34.598  56.042  45.037  0.00  0.00     0.037 A 
HETATM   35  C   UNK N   1      34.199  54.954  44.258  0.00  0.00     0.017 A 
BRANCH  33  36
HETATM   36  O   UNK N   1      34.255  57.468  46.903  0.00  0.00    -0.361 OA
HETATM   37  H   UNK N   1      33.714  58.263  47.002  0.00  0.00     0.217 HD
ENDBRANCH  33  36
ENDBRANCH   6  30
TORSDOF 10
ENDMDL
