MODEL 1
REMARK VINA RESULT:      -7.0      0.000      0.000
REMARK  11 active torsions:
REMARK  status: ('A' for Active; 'I' for Inactive)
REMARK    1  A    between atoms: C_6  and  C_8 
REMARK    2  A    between atoms: C_11  and  O_12 
REMARK    3  A    between atoms: C_17  and  O_18 
REMARK    4  A    between atoms: O_18  and  C_19 
REMARK    5  A    between atoms: C_21  and  C_22 
REMARK    6  A    between atoms: C_22  and  O_24 
REMARK    7  A    between atoms: O_24  and  C_25 
REMARK    8  A    between atoms: C_27  and  O_28 
REMARK    9  A    between atoms: C_30  and  O_31 
REMARK   10  A    between atoms: C_33  and  O_34 
REMARK   11  A    between atoms: C_37  and  O_38 
ROOT
HETATM    1  O   UNK N   1      44.282  48.061  49.297  0.00  0.00    -0.287 OA
HETATM    2  C   UNK N   1      43.265  47.396  49.199  0.00  0.00     0.190 A 
HETATM    3  C   UNK N   1      42.498  47.401  48.017  0.00  0.00     0.081 A 
HETATM    4  C   UNK N   1      41.329  46.610  47.984  0.00  0.00     0.095 A 
HETATM    5  O   UNK N   1      40.989  45.862  49.032  0.00  0.00    -0.309 OA
HETATM    6  C   UNK N   1      41.685  45.841  50.169  0.00  0.00     0.090 A 
HETATM    7  C   UNK N   1      42.847  46.624  50.283  0.00  0.00     0.094 A 
HETATM    8  C   UNK N   1      40.495  46.628  46.860  0.00  0.00     0.075 A 
HETATM    9  C   UNK N   1      40.820  47.428  45.747  0.00  0.00     0.077 A 
HETATM   10  C   UNK N   1      42.002  48.172  45.758  0.00  0.00     0.074 A 
HETATM   11  C   UNK N   1      42.843  48.174  46.882  0.00  0.00     0.085 A 
ENDROOT
BRANCH   9  12
HETATM   12  O   UNK N   1      40.002  47.542  44.667  0.00  0.00    -0.318 OA
BRANCH  12  13
HETATM   13  C   UNK N   1      39.158  48.611  44.416  0.00  0.00     0.298 C 
HETATM   14  O   UNK N   1      37.989  48.166  43.748  0.00  0.00    -0.340 OA
HETATM   15  C   UNK N   1      37.061  49.236  43.628  0.00  0.00     0.255 C 
HETATM   16  C   UNK N   1      37.643  50.335  42.700  0.00  0.00     0.188 C 
HETATM   17  C   UNK N   1      38.972  50.835  43.298  0.00  0.00     0.183 C 
HETATM   18  C   UNK N   1      39.904  49.636  43.544  0.00  0.00     0.205 C 
BRANCH  15  19
HETATM   19  C   UNK N   1      35.758  48.682  43.107  0.00  0.00     0.290 C 
HETATM   20  O   UNK N   1      35.678  47.517  42.736  0.00  0.00    -0.262 OA
BRANCH  19  21
HETATM   21  O   UNK N   1      34.658  49.477  43.113  0.00  0.00    -0.320 OA
BRANCH  21  22
HETATM   22  C   UNK N   1      33.404  49.033  43.480  0.00  0.00     0.174 C 
HETATM   23  C   UNK N   1      32.349  49.881  42.786  0.00  0.00     0.034 C 
ENDBRANCH  21  22
ENDBRANCH  19  21
ENDBRANCH  15  19
BRANCH  16  24
HETATM   24  O   UNK N   1      37.867  49.785  41.423  0.00  0.00    -0.390 OA
HETATM   25  H   UNK N   1      37.313  50.302  40.782  0.00  0.00     0.210 HD
ENDBRANCH  16  24
BRANCH  17  26
HETATM   26  O   UNK N   1      39.595  51.753  42.437  0.00  0.00    -0.390 OA
HETATM   27  H   UNK N   1      40.474  51.363  42.189  0.00  0.00     0.210 HD
ENDBRANCH  17  26
BRANCH  18  28
HETATM   28  O   UNK N   1      41.070  50.054  44.208  0.00  0.00    -0.388 OA
HETATM   29  H   UNK N   1      41.728  50.297  43.506  0.00  0.00     0.210 HD
ENDBRANCH  18  28
ENDBRANCH  12  13
ENDBRANCH   9  12
BRANCH  11  30
HETATM   30  O   UNK N   1      43.963  48.928  46.874  0.00  0.00    -0.360 OA
HETATM   31  H   UNK N   1      44.082  49.662  46.254  0.00  0.00     0.217 HD
ENDBRANCH  11  30
BRANCH   6  32
HETATM   32  C   UNK N   1      41.200  44.982  51.285  0.00  0.00    -0.002 A 
HETATM   33  C   UNK N   1      40.229  43.998  51.022  0.00  0.00     0.017 A 
HETATM   34  C   UNK N   1      39.758  43.171  52.046  0.00  0.00     0.037 A 
HETATM   35  C   UNK N   1      40.235  43.329  53.355  0.00  0.00     0.065 A 
HETATM   36  C   UNK N   1      41.188  44.312  53.630  0.00  0.00     0.037 A 
HETATM   37  C   UNK N   1      41.677  45.128  52.605  0.00  0.00     0.017 A 
BRANCH  35  38
HETATM   38  O   UNK N   1      39.781  42.542  54.352  0.00  0.00    -0.361 OA
HETATM   39  H   UNK N   1      39.983  41.597  54.387  0.00  0.00     0.217 HD
ENDBRANCH  35  38
ENDBRANCH   6  32
TORSDOF 11
ENDMDL
MODEL 2
REMARK VINA RESULT:      -6.8      9.510     13.066
REMARK  11 active torsions:
REMARK  status: ('A' for Active; 'I' for Inactive)
REMARK    1  A    between atoms: C_6  and  C_8 
REMARK    2  A    between atoms: C_11  and  O_12 
REMARK    3  A    between atoms: C_17  and  O_18 
REMARK    4  A    between atoms: O_18  and  C_19 
REMARK    5  A    between atoms: C_21  and  C_22 
REMARK    6  A    between atoms: C_22  and  O_24 
REMARK    7  A    between atoms: O_24  and  C_25 
REMARK    8  A    between atoms: C_27  and  O_28 
REMARK    9  A    between atoms: C_30  and  O_31 
REMARK   10  A    between atoms: C_33  and  O_34 
REMARK   11  A    between atoms: C_37  and  O_38 
ROOT
HETATM    1  O   UNK N   1      33.343  49.475  43.753  0.00  0.00    -0.287 OA
HETATM    2  C   UNK N   1      32.865  50.567  43.497  0.00  0.00     0.190 A 
HETATM    3  C   UNK N   1      31.890  50.722  42.491  0.00  0.00     0.081 A 
HETATM    4  C   UNK N   1      31.391  52.022  42.249  0.00  0.00     0.095 A 
HETATM    5  O   UNK N   1      31.812  53.054  42.977  0.00  0.00    -0.309 OA
HETATM    6  C   UNK N   1      32.739  52.945  43.929  0.00  0.00     0.090 A 
HETATM    7  C   UNK N   1      33.301  51.686  44.207  0.00  0.00     0.094 A 
HETATM    8  C   UNK N   1      30.470  52.244  41.219  0.00  0.00     0.075 A 
HETATM    9  C   UNK N   1      30.026  51.172  40.419  0.00  0.00     0.077 A 
HETATM   10  C   UNK N   1      30.480  49.880  40.691  0.00  0.00     0.074 A 
HETATM   11  C   UNK N   1      31.412  49.641  41.712  0.00  0.00     0.085 A 
ENDROOT
BRANCH   9  12
HETATM   12  O   UNK N   1      29.196  51.350  39.357  0.00  0.00    -0.318 OA
BRANCH  12  13
HETATM   13  C   UNK N   1      28.247  52.353  39.247  0.00  0.00     0.298 C 
HETATM   14  O   UNK N   1      28.504  53.375  40.197  0.00  0.00    -0.340 OA
HETATM   15  C   UNK N   1      27.623  54.470  39.982  0.00  0.00     0.255 C 
HETATM   16  C   UNK N   1      26.162  54.032  40.268  0.00  0.00     0.188 C 
HETATM   17  C   UNK N   1      25.804  52.859  39.335  0.00  0.00     0.183 C 
HETATM   18  C   UNK N   1      26.855  51.746  39.491  0.00  0.00     0.205 C 
BRANCH  15  19
HETATM   19  C   UNK N   1      28.058  55.613  40.866  0.00  0.00     0.290 C 
HETATM   20  O   UNK N   1      27.705  56.760  40.623  0.00  0.00    -0.262 OA
BRANCH  19  21
HETATM   21  O   UNK N   1      28.797  55.341  41.971  0.00  0.00    -0.320 OA
BRANCH  21  22
HETATM   22  C   UNK N   1      29.889  56.092  42.356  0.00  0.00     0.174 C 
HETATM   23  C   UNK N   1      30.975  55.976  41.298  0.00  0.00     0.034 C 
ENDBRANCH  21  22
ENDBRANCH  19  21
ENDBRANCH  15  19
BRANCH  16  24
HETATM   24  O   UNK N   1      26.059  53.626  41.612  0.00  0.00    -0.390 OA
HETATM   25  H   UNK N   1      26.699  54.177  42.132  0.00  0.00     0.210 HD
ENDBRANCH  16  24
BRANCH  17  26
HETATM   26  O   UNK N   1      24.528  52.353  39.631  0.00  0.00    -0.390 OA
HETATM   27  H   UNK N   1      23.975  52.479  38.816  0.00  0.00     0.210 HD
ENDBRANCH  17  26
BRANCH  18  28
HETATM   28  O   UNK N   1      26.622  50.722  38.557  0.00  0.00    -0.388 OA
HETATM   29  H   UNK N   1      26.654  51.142  37.658  0.00  0.00     0.210 HD
ENDBRANCH  18  28
ENDBRANCH  12  13
ENDBRANCH   9  12
BRANCH  11  30
HETATM   30  O   UNK N   1      31.857  48.385  41.929  0.00  0.00    -0.360 OA
HETATM   31  H   UNK N   1      31.485  47.622  41.463  0.00  0.00     0.217 HD
ENDBRANCH  11  30
BRANCH   6  32
HETATM   32  C   UNK N   1      33.150  54.172  44.666  0.00  0.00    -0.002 A 
HETATM   33  C   UNK N   1      32.386  54.600  45.768  0.00  0.00     0.017 A 
HETATM   34  C   UNK N   1      32.749  55.743  46.485  0.00  0.00     0.037 A 
HETATM   35  C   UNK N   1      33.870  56.491  46.100  0.00  0.00     0.065 A 
HETATM   36  C   UNK N   1      34.627  56.084  44.999  0.00  0.00     0.037 A 
HETATM   37  C   UNK N   1      34.280  54.930  44.290  0.00  0.00     0.017 A 
BRANCH  35  38
HETATM   38  O   UNK N   1      34.224  57.601  46.779  0.00  0.00    -0.361 OA
HETATM   39  H   UNK N   1      35.051  58.069  46.594  0.00  0.00     0.217 HD
ENDBRANCH  35  38
ENDBRANCH   6  32
TORSDOF 11
ENDMDL
MODEL 3
REMARK VINA RESULT:      -6.6     13.715     16.762
REMARK  11 active torsions:
REMARK  status: ('A' for Active; 'I' for Inactive)
REMARK    1  A    between atoms: C_6  and  C_8 
REMARK    2  A    between atoms: C_11  and  O_12 
REMARK    3  A    between atoms: C_17  and  O_18 
REMARK    4  A    between atoms: O_18  and  C_19 
REMARK    5  A    between atoms: C_21  and  C_22 
REMARK    6  A    between atoms: C_22  and  O_24 
REMARK    7  A    between atoms: O_24  and  C_25 
REMARK    8  A    between atoms: C_27  and  O_28 
REMARK    9  A    between atoms: C_30  and  O_31 
REMARK   10  A    between atoms: C_33  and  O_34 
REMARK   11  A    between atoms: C_37  and  O_38 
ROOT
HETATM    1  O   UNK N   1      29.804  39.851  58.486  0.00  0.00    -0.287 OA
HETATM    2  C   UNK N   1      29.702  40.814  57.745  0.00  0.00     0.190 A 
HETATM    3  C   UNK N   1      29.991  42.118  58.194  0.00  0.00     0.081 A 
HETATM    4  C   UNK N   1      29.841  43.182  57.276  0.00  0.00     0.095 A 
HETATM    5  O   UNK N   1      29.469  42.944  56.020  0.00  0.00    -0.309 OA
HETATM    6  C   UNK N   1      29.179  41.725  55.564  0.00  0.00     0.090 A 
HETATM    7  C   UNK N   1      29.280  40.621  56.429  0.00  0.00     0.094 A 
HETATM    8  C   UNK N   1      30.051  44.504  57.687  0.00  0.00     0.075 A 
HETATM    9  C   UNK N   1      30.422  44.784  59.017  0.00  0.00     0.077 A 
HETATM   10  C   UNK N   1      30.620  43.729  59.911  0.00  0.00     0.074 A 
HETATM   11  C   UNK N   1      30.403  42.400  59.518  0.00  0.00     0.085 A 
ENDROOT
BRANCH   9  12
HETATM   12  O   UNK N   1      30.558  46.054  59.484  0.00  0.00    -0.318 OA
BRANCH  12  13
HETATM   13  C   UNK N   1      29.555  47.009  59.496  0.00  0.00     0.298 C 
HETATM   14  O   UNK N   1      29.928  48.120  58.696  0.00  0.00    -0.340 OA
HETATM   15  C   UNK N   1      28.838  49.027  58.588  0.00  0.00     0.255 C 
HETATM   16  C   UNK N   1      28.524  49.638  59.980  0.00  0.00     0.188 C 
HETATM   17  C   UNK N   1      28.183  48.497  60.957  0.00  0.00     0.183 C 
HETATM   18  C   UNK N   1      29.321  47.461  60.947  0.00  0.00     0.205 C 
BRANCH  15  19
HETATM   19  C   UNK N   1      29.195  50.082  57.570  0.00  0.00     0.290 C 
HETATM   20  O   UNK N   1      29.061  51.272  57.828  0.00  0.00    -0.262 OA
BRANCH  19  21
HETATM   21  O   UNK N   1      29.727  49.693  56.384  0.00  0.00    -0.320 OA
BRANCH  21  22
HETATM   22  C   UNK N   1      30.739  50.382  55.745  0.00  0.00     0.174 C 
HETATM   23  C   UNK N   1      30.223  50.915  54.418  0.00  0.00     0.034 C 
ENDBRANCH  21  22
ENDBRANCH  19  21
ENDBRANCH  15  19
BRANCH  16  24
HETATM   24  O   UNK N   1      29.655  50.342  60.437  0.00  0.00    -0.390 OA
HETATM   25  H   UNK N   1      29.611  51.251  60.043  0.00  0.00     0.210 HD
ENDBRANCH  16  24
BRANCH  17  26
HETATM   26  O   UNK N   1      27.998  48.989  62.259  0.00  0.00    -0.390 OA
HETATM   27  H   UNK N   1      27.403  49.780  62.184  0.00  0.00     0.210 HD
ENDBRANCH  17  26
BRANCH  18  28
HETATM   28  O   UNK N   1      28.972  46.349  61.733  0.00  0.00    -0.388 OA
HETATM   29  H   UNK N   1      29.548  46.377  62.540  0.00  0.00     0.210 HD
ENDBRANCH  18  28
ENDBRANCH  12  13
ENDBRANCH   9  12
BRANCH  11  30
HETATM   30  O   UNK N   1      30.572  41.405  60.415  0.00  0.00    -0.360 OA
HETATM   31  H   UNK N   1      30.104  41.394  61.263  0.00  0.00     0.217 HD
ENDBRANCH  11  30
BRANCH   6  32
HETATM   32  C   UNK N   1      28.752  41.579  54.145  0.00  0.00    -0.002 A 
HETATM   33  C   UNK N   1      29.481  42.238  53.137  0.00  0.00     0.017 A 
HETATM   34  C   UNK N   1      29.111  42.115  51.795  0.00  0.00     0.037 A 
HETATM   35  C   UNK N   1      27.993  41.349  51.440  0.00  0.00     0.065 A 
HETATM   36  C   UNK N   1      27.253  40.703  52.433  0.00  0.00     0.037 A 
HETATM   37  C   UNK N   1      27.630  40.806  53.775  0.00  0.00     0.017 A 
BRANCH  35  38
HETATM   38  O   UNK N   1      27.621  41.231  50.148  0.00  0.00    -0.361 OA
HETATM   39  H   UNK N   1      26.914  41.773  49.771  0.00  0.00     0.217 HD
ENDBRANCH  35  38
ENDBRANCH   6  32
TORSDOF 11
ENDMDL
MODEL 4
REMARK VINA RESULT:      -6.6     13.860     18.056
REMARK  11 active torsions:
REMARK  status: ('A' for Active; 'I' for Inactive)
REMARK    1  A    between atoms: C_6  and  C_8 
REMARK    2  A    between atoms: C_11  and  O_12 
REMARK    3  A    between atoms: C_17  and  O_18 
REMARK    4  A    between atoms: O_18  and  C_19 
REMARK    5  A    between atoms: C_21  and  C_22 
REMARK    6  A    between atoms: C_22  and  O_24 
REMARK    7  A    between atoms: O_24  and  C_25 
REMARK    8  A    between atoms: C_27  and  O_28 
REMARK    9  A    between atoms: C_30  and  O_31 
REMARK   10  A    between atoms: C_33  and  O_34 
REMARK   11  A    between atoms: C_37  and  O_38 
ROOT
HETATM    1  O   UNK N   1      29.705  44.169  62.740  0.00  0.00    -0.287 OA
HETATM    2  C   UNK N   1      30.640  43.921  61.998  0.00  0.00     0.190 A 
HETATM    3  C   UNK N   1      31.972  43.970  62.455  0.00  0.00     0.081 A 
HETATM    4  C   UNK N   1      33.000  43.677  61.531  0.00  0.00     0.095 A 
HETATM    5  O   UNK N   1      32.705  43.335  60.278  0.00  0.00    -0.309 OA
HETATM    6  C   UNK N   1      31.458  43.289  59.809  0.00  0.00     0.090 A 
HETATM    7  C   UNK N   1      30.385  43.594  60.666  0.00  0.00     0.094 A 
HETATM    8  C   UNK N   1      34.343  43.774  61.914  0.00  0.00     0.075 A 
HETATM    9  C   UNK N   1      34.681  44.156  63.227  0.00  0.00     0.077 A 
HETATM   10  C   UNK N   1      33.665  44.396  64.155  0.00  0.00     0.074 A 
HETATM   11  C   UNK N   1      32.314  44.315  63.785  0.00  0.00     0.085 A 
ENDROOT
BRANCH   9  12
HETATM   12  O   UNK N   1      35.968  44.343  63.624  0.00  0.00    -0.318 OA
BRANCH  12  13
HETATM   13  C   UNK N   1      36.567  45.574  63.827  0.00  0.00     0.298 C 
HETATM   14  O   UNK N   1      35.579  46.584  63.952  0.00  0.00    -0.340 OA
HETATM   15  C   UNK N   1      36.188  47.818  64.311  0.00  0.00     0.255 C 
HETATM   16  C   UNK N   1      37.101  48.308  63.156  0.00  0.00     0.188 C 
HETATM   17  C   UNK N   1      38.173  47.236  62.882  0.00  0.00     0.183 C 
HETATM   18  C   UNK N   1      37.486  45.882  62.632  0.00  0.00     0.205 C 
BRANCH  15  19
HETATM   19  C   UNK N   1      35.099  48.810  64.637  0.00  0.00     0.290 C 
HETATM   20  O   UNK N   1      33.996  48.429  65.007  0.00  0.00    -0.262 OA
BRANCH  19  21
HETATM   21  O   UNK N   1      35.381  50.136  64.573  0.00  0.00    -0.320 OA
BRANCH  21  22
HETATM   22  C   UNK N   1      34.421  51.106  64.366  0.00  0.00     0.174 C 
HETATM   23  C   UNK N   1      34.234  51.315  62.872  0.00  0.00     0.034 C 
ENDBRANCH  21  22
ENDBRANCH  19  21
ENDBRANCH  15  19
BRANCH  16  24
HETATM   24  O   UNK N   1      36.317  48.510  62.005  0.00  0.00    -0.390 OA
HETATM   25  H   UNK N   1      36.730  47.981  61.274  0.00  0.00     0.210 HD
ENDBRANCH  16  24
BRANCH  17  26
HETATM   26  O   UNK N   1      38.958  47.583  61.770  0.00  0.00    -0.390 OA
HETATM   27  H   UNK N   1      38.619  48.457  61.442  0.00  0.00     0.210 HD
ENDBRANCH  17  26
BRANCH  18  28
HETATM   28  O   UNK N   1      38.447  44.865  62.508  0.00  0.00    -0.388 OA
HETATM   29  H   UNK N   1      38.849  44.958  61.606  0.00  0.00     0.210 HD
ENDBRANCH  18  28
ENDBRANCH  12  13
ENDBRANCH   9  12
BRANCH  11  30
HETATM   30  O   UNK N   1      31.356  44.584  64.697  0.00  0.00    -0.360 OA
HETATM   31  H   UNK N   1      31.333  45.420  65.184  0.00  0.00     0.217 HD
ENDBRANCH  11  30
BRANCH   6  32
HETATM   32  C   UNK N   1      31.247  42.914  58.383  0.00  0.00    -0.002 A 
HETATM   33  C   UNK N   1      30.118  42.150  58.033  0.00  0.00     0.017 A 
HETATM   34  C   UNK N   1      29.889  41.788  56.703  0.00  0.00     0.037 A 
HETATM   35  C   UNK N   1      30.795  42.165  55.703  0.00  0.00     0.065 A 
HETATM   36  C   UNK N   1      31.927  42.910  56.041  0.00  0.00     0.037 A 
HETATM   37  C   UNK N   1      32.152  43.293  57.368  0.00  0.00     0.017 A 
BRANCH  35  38
HETATM   38  O   UNK N   1      30.588  41.813  54.418  0.00  0.00    -0.361 OA
HETATM   39  H   UNK N   1      30.168  40.974  54.181  0.00  0.00     0.217 HD
ENDBRANCH  35  38
ENDBRANCH   6  32
TORSDOF 11
ENDMDL
MODEL 5
REMARK VINA RESULT:      -6.4     15.176     16.931
REMARK  11 active torsions:
REMARK  status: ('A' for Active; 'I' for Inactive)
REMARK    1  A    between atoms: C_6  and  C_8 
REMARK    2  A    between atoms: C_11  and  O_12 
REMARK    3  A    between atoms: C_17  and  O_18 
REMARK    4  A    between atoms: O_18  and  C_19 
REMARK    5  A    between atoms: C_21  and  C_22 
REMARK    6  A    between atoms: C_22  and  O_24 
REMARK    7  A    between atoms: O_24  and  C_25 
REMARK    8  A    between atoms: C_27  and  O_28 
REMARK    9  A    between atoms: C_30  and  O_31 
REMARK   10  A    between atoms: C_33  and  O_34 
REMARK   11  A    between atoms: C_37  and  O_38 
ROOT
HETATM    1  O   UNK N   1      31.114  43.080  64.284  0.00  0.00    -0.287 OA
HETATM    2  C   UNK N   1      31.939  43.292  63.413  0.00  0.00     0.190 A 
HETATM    3  C   UNK N   1      31.632  43.101  62.051  0.00  0.00     0.081 A 
HETATM    4  C   UNK N   1      32.645  43.361  61.101  0.00  0.00     0.095 A 
HETATM    5  O   UNK N   1      33.839  43.804  61.491  0.00  0.00    -0.309 OA
HETATM    6  C   UNK N   1      34.167  43.986  62.770  0.00  0.00     0.090 A 
HETATM    7  C   UNK N   1      33.216  43.722  63.772  0.00  0.00     0.094 A 
HETATM    8  C   UNK N   1      32.415  43.125  59.741  0.00  0.00     0.075 A 
HETATM    9  C   UNK N   1      31.168  42.635  59.305  0.00  0.00     0.077 A 
HETATM   10  C   UNK N   1      30.149  42.426  60.238  0.00  0.00     0.074 A 
HETATM   11  C   UNK N   1      30.367  42.646  61.606  0.00  0.00     0.085 A 
ENDROOT
BRANCH   9  12
HETATM   12  O   UNK N   1      30.924  42.315  58.006  0.00  0.00    -0.318 OA
BRANCH  12  13
HETATM   13  C   UNK N   1      29.709  41.869  57.512  0.00  0.00     0.298 C 
HETATM   14  O   UNK N   1      29.846  40.558  56.986  0.00  0.00    -0.340 OA
HETATM   15  C   UNK N   1      28.571  40.048  56.619  0.00  0.00     0.255 C 
HETATM   16  C   UNK N   1      27.991  40.879  55.443  0.00  0.00     0.188 C 
HETATM   17  C   UNK N   1      27.877  42.350  55.886  0.00  0.00     0.183 C 
HETATM   18  C   UNK N   1      29.242  42.833  56.407  0.00  0.00     0.205 C 
BRANCH  15  19
HETATM   19  C   UNK N   1      28.727  38.589  56.263  0.00  0.00     0.290 C 
HETATM   20  O   UNK N   1      27.781  37.817  56.361  0.00  0.00    -0.262 OA
BRANCH  19  21
HETATM   21  O   UNK N   1      29.916  38.158  55.771  0.00  0.00    -0.320 OA
BRANCH  21  22
HETATM   22  C   UNK N   1      30.025  37.206  54.779  0.00  0.00     0.174 C 
HETATM   23  C   UNK N   1      30.717  35.974  55.340  0.00  0.00     0.034 C 
ENDBRANCH  21  22
ENDBRANCH  19  21
ENDBRANCH  15  19
BRANCH  16  24
HETATM   24  O   UNK N   1      28.856  40.775  54.337  0.00  0.00    -0.390 OA
HETATM   25  H   UNK N   1      28.538  40.011  53.790  0.00  0.00     0.210 HD
ENDBRANCH  16  24
BRANCH  17  26
HETATM   26  O   UNK N   1      27.459  43.164  54.821  0.00  0.00    -0.390 OA
HETATM   27  H   UNK N   1      27.433  42.587  54.013  0.00  0.00     0.210 HD
ENDBRANCH  17  26
BRANCH  18  28
HETATM   28  O   UNK N   1      29.129  44.130  56.936  0.00  0.00    -0.388 OA
HETATM   29  H   UNK N   1      29.056  44.749  56.164  0.00  0.00     0.210 HD
ENDBRANCH  18  28
ENDBRANCH  12  13
ENDBRANCH   9  12
BRANCH  11  30
HETATM   30  O   UNK N   1      29.372  42.404  62.486  0.00  0.00    -0.360 OA
HETATM   31  H   UNK N   1      28.744  43.091  62.752  0.00  0.00     0.217 HD
ENDBRANCH  11  30
BRANCH   6  32
HETATM   32  C   UNK N   1      35.540  44.466  63.091  0.00  0.00    -0.002 A 
HETATM   33  C   UNK N   1      36.408  44.818  62.041  0.00  0.00     0.017 A 
HETATM   34  C   UNK N   1      37.700  45.277  62.310  0.00  0.00     0.037 A 
HETATM   35  C   UNK N   1      38.153  45.373  63.633  0.00  0.00     0.065 A 
HETATM   36  C   UNK N   1      37.306  45.013  64.682  0.00  0.00     0.037 A 
HETATM   37  C   UNK N   1      36.005  44.571  64.420  0.00  0.00     0.017 A 
BRANCH  35  38
HETATM   38  O   UNK N   1      39.402  45.807  63.903  0.00  0.00    -0.361 OA
HETATM   39  H   UNK N   1      39.685  46.707  63.687  0.00  0.00     0.217 HD
ENDBRANCH  35  38
ENDBRANCH   6  32
TORSDOF 11
ENDMDL
MODEL 6
REMARK VINA RESULT:      -6.4     14.358     17.342
REMARK  11 active torsions:
REMARK  status: ('A' for Active; 'I' for Inactive)
REMARK    1  A    between atoms: C_6  and  C_8 
REMARK    2  A    between atoms: C_11  and  O_12 
REMARK    3  A    between atoms: C_17  and  O_18 
REMARK    4  A    between atoms: O_18  and  C_19 
REMARK    5  A    between atoms: C_21  and  C_22 
REMARK    6  A    between atoms: C_22  and  O_24 
REMARK    7  A    between atoms: O_24  and  C_25 
REMARK    8  A    between atoms: C_27  and  O_28 
REMARK    9  A    between atoms: C_30  and  O_31 
REMARK   10  A    between atoms: C_33  and  O_34 
REMARK   11  A    between atoms: C_37  and  O_38 
ROOT
HETATM    1  O   UNK N   1      32.213  48.887  64.270  0.00  0.00    -0.287 OA
HETATM    2  C   UNK N   1      32.702  47.836  63.891  0.00  0.00     0.190 A 
HETATM    3  C   UNK N   1      31.925  46.863  63.231  0.00  0.00     0.081 A 
HETATM    4  C   UNK N   1      32.563  45.668  62.830  0.00  0.00     0.095 A 
HETATM    5  O   UNK N   1      33.865  45.492  63.045  0.00  0.00    -0.309 OA
HETATM    6  C   UNK N   1      34.628  46.387  63.674  0.00  0.00     0.090 A 
HETATM    7  C   UNK N   1      34.054  47.589  64.126  0.00  0.00     0.094 A 
HETATM    8  C   UNK N   1      31.826  44.641  62.229  0.00  0.00     0.075 A 
HETATM    9  C   UNK N   1      30.442  44.793  62.011  0.00  0.00     0.077 A 
HETATM   10  C   UNK N   1      29.821  45.994  62.361  0.00  0.00     0.074 A 
HETATM   11  C   UNK N   1      30.543  47.029  62.975  0.00  0.00     0.085 A 
ENDROOT
BRANCH   9  12
HETATM   12  O   UNK N   1      29.670  43.795  61.506  0.00  0.00    -0.318 OA
BRANCH  12  13
HETATM   13  C   UNK N   1      29.573  43.464  60.165  0.00  0.00     0.298 C 
HETATM   14  O   UNK N   1      30.815  43.687  59.516  0.00  0.00    -0.340 OA
HETATM   15  C   UNK N   1      30.757  43.205  58.179  0.00  0.00     0.255 C 
HETATM   16  C   UNK N   1      29.737  44.042  57.363  0.00  0.00     0.188 C 
HETATM   17  C   UNK N   1      28.356  43.933  58.037  0.00  0.00     0.183 C 
HETATM   18  C   UNK N   1      28.479  44.330  59.519  0.00  0.00     0.205 C 
BRANCH  15  19
HETATM   19  C   UNK N   1      32.145  43.267  57.590  0.00  0.00     0.290 C 
HETATM   20  O   UNK N   1      32.321  43.124  56.386  0.00  0.00    -0.262 OA
BRANCH  19  21
HETATM   21  O   UNK N   1      33.192  43.547  58.407  0.00  0.00    -0.320 OA
BRANCH  21  22
HETATM   22  C   UNK N   1      34.031  42.580  58.922  0.00  0.00     0.174 C 
HETATM   23  C   UNK N   1      34.323  42.894  60.381  0.00  0.00     0.034 C 
ENDBRANCH  21  22
ENDBRANCH  19  21
ENDBRANCH  15  19
BRANCH  16  24
HETATM   24  O   UNK N   1      30.157  45.385  57.342  0.00  0.00    -0.390 OA
HETATM   25  H   UNK N   1      29.340  45.947  57.364  0.00  0.00     0.210 HD
ENDBRANCH  16  24
BRANCH  17  26
HETATM   26  O   UNK N   1      27.419  44.763  57.399  0.00  0.00    -0.390 OA
HETATM   27  H   UNK N   1      26.613  44.782  57.978  0.00  0.00     0.210 HD
ENDBRANCH  17  26
BRANCH  18  28
HETATM   28  O   UNK N   1      27.260  44.114  60.183  0.00  0.00    -0.388 OA
HETATM   29  H   UNK N   1      26.861  43.294  59.791  0.00  0.00     0.210 HD
ENDBRANCH  18  28
ENDBRANCH  12  13
ENDBRANCH   9  12
BRANCH  11  30
HETATM   30  O   UNK N   1      29.906  48.165  63.331  0.00  0.00    -0.360 OA
HETATM   31  H   UNK N   1      30.387  48.983  63.522  0.00  0.00     0.217 HD
ENDBRANCH  11  30
BRANCH   6  32
HETATM   32  C   UNK N   1      36.070  46.075  63.879  0.00  0.00    -0.002 A 
HETATM   33  C   UNK N   1      36.806  45.504  62.824  0.00  0.00     0.017 A 
HETATM   34  C   UNK N   1      38.162  45.207  62.981  0.00  0.00     0.037 A 
HETATM   35  C   UNK N   1      38.800  45.455  64.204  0.00  0.00     0.065 A 
HETATM   36  C   UNK N   1      38.077  46.007  65.263  0.00  0.00     0.037 A 
HETATM   37  C   UNK N   1      36.724  46.325  65.105  0.00  0.00     0.017 A 
BRANCH  35  38
HETATM   38  O   UNK N   1      40.107  45.163  64.370  0.00  0.00    -0.361 OA
HETATM   39  H   UNK N   1      40.403  44.272  64.605  0.00  0.00     0.217 HD
ENDBRANCH  35  38
ENDBRANCH   6  32
TORSDOF 11
ENDMDL
MODEL 7
REMARK VINA RESULT:      -6.2     14.037     17.378
REMARK  11 active torsions:
REMARK  status: ('A' for Active; 'I' for Inactive)
REMARK    1  A    between atoms: C_6  and  C_8 
REMARK    2  A    between atoms: C_11  and  O_12 
REMARK    3  A    between atoms: C_17  and  O_18 
REMARK    4  A    between atoms: O_18  and  C_19 
REMARK    5  A    between atoms: C_21  and  C_22 
REMARK    6  A    between atoms: C_22  and  O_24 
REMARK    7  A    between atoms: O_24  and  C_25 
REMARK    8  A    between atoms: C_27  and  O_28 
REMARK    9  A    between atoms: C_30  and  O_31 
REMARK   10  A    between atoms: C_33  and  O_34 
REMARK   11  A    between atoms: C_37  and  O_38 
ROOT
HETATM    1  O   UNK N   1      31.681  42.366  62.591  0.00  0.00    -0.287 OA
HETATM    2  C   UNK N   1      32.229  43.442  62.759  0.00  0.00     0.190 A 
HETATM    3  C   UNK N   1      31.496  44.646  62.749  0.00  0.00     0.081 A 
HETATM    4  C   UNK N   1      32.205  45.853  62.943  0.00  0.00     0.095 A 
HETATM    5  O   UNK N   1      33.519  45.838  63.160  0.00  0.00    -0.309 OA
HETATM    6  C   UNK N   1      34.244  44.719  63.167  0.00  0.00     0.090 A 
HETATM    7  C   UNK N   1      33.609  43.482  62.954  0.00  0.00     0.094 A 
HETATM    8  C   UNK N   1      31.538  47.082  62.877  0.00  0.00     0.075 A 
HETATM    9  C   UNK N   1      30.152  47.126  62.625  0.00  0.00     0.077 A 
HETATM   10  C   UNK N   1      29.443  45.931  62.484  0.00  0.00     0.074 A 
HETATM   11  C   UNK N   1      30.098  44.691  62.536  0.00  0.00     0.085 A 
ENDROOT
BRANCH   9  12
HETATM   12  O   UNK N   1      29.476  48.295  62.472  0.00  0.00    -0.318 OA
BRANCH  12  13
HETATM   13  C   UNK N   1      28.766  48.661  61.340  0.00  0.00     0.298 C 
HETATM   14  O   UNK N   1      29.587  48.546  60.189  0.00  0.00    -0.340 OA
HETATM   15  C   UNK N   1      28.815  48.775  59.017  0.00  0.00     0.255 C 
HETATM   16  C   UNK N   1      28.319  50.245  58.995  0.00  0.00     0.188 C 
HETATM   17  C   UNK N   1      27.475  50.503  60.257  0.00  0.00     0.183 C 
HETATM   18  C   UNK N   1      28.290  50.115  61.503  0.00  0.00     0.205 C 
BRANCH  15  19
HETATM   19  C   UNK N   1      29.663  48.441  57.815  0.00  0.00     0.290 C 
HETATM   20  O   UNK N   1      30.344  47.423  57.793  0.00  0.00    -0.262 OA
BRANCH  19  21
HETATM   21  O   UNK N   1      29.611  49.255  56.731  0.00  0.00    -0.320 OA
BRANCH  21  22
HETATM   22  C   UNK N   1      30.735  49.728  56.083  0.00  0.00     0.174 C 
HETATM   23  C   UNK N   1      30.322  50.770  55.056  0.00  0.00     0.034 C 
ENDBRANCH  21  22
ENDBRANCH  19  21
ENDBRANCH  15  19
BRANCH  16  24
HETATM   24  O   UNK N   1      29.433  51.105  58.977  0.00  0.00    -0.390 OA
HETATM   25  H   UNK N   1      30.192  50.607  59.378  0.00  0.00     0.210 HD
ENDBRANCH  16  24
BRANCH  17  26
HETATM   26  O   UNK N   1      27.093  51.851  60.340  0.00  0.00    -0.390 OA
HETATM   27  H   UNK N   1      26.212  51.928  59.889  0.00  0.00     0.210 HD
ENDBRANCH  17  26
BRANCH  18  28
HETATM   28  O   UNK N   1      27.495  50.219  62.657  0.00  0.00    -0.388 OA
HETATM   29  H   UNK N   1      27.837  49.548  63.303  0.00  0.00     0.210 HD
ENDBRANCH  18  28
ENDBRANCH  12  13
ENDBRANCH   9  12
BRANCH  11  30
HETATM   30  O   UNK N   1      29.389  43.555  62.363  0.00  0.00    -0.360 OA
HETATM   31  H   UNK N   1      29.803  42.733  62.065  0.00  0.00     0.217 HD
ENDBRANCH  11  30
BRANCH   6  32
HETATM   32  C   UNK N   1      35.711  44.824  63.400  0.00  0.00    -0.002 A 
HETATM   33  C   UNK N   1      36.218  44.615  64.697  0.00  0.00     0.017 A 
HETATM   34  C   UNK N   1      37.591  44.699  64.946  0.00  0.00     0.037 A 
HETATM   35  C   UNK N   1      38.478  45.015  63.908  0.00  0.00     0.065 A 
HETATM   36  C   UNK N   1      37.985  45.239  62.621  0.00  0.00     0.037 A 
HETATM   37  C   UNK N   1      36.614  45.137  62.361  0.00  0.00     0.017 A 
BRANCH  35  38
HETATM   38  O   UNK N   1      39.803  45.107  64.140  0.00  0.00    -0.361 OA
HETATM   39  H   UNK N   1      40.455  44.773  63.508  0.00  0.00     0.217 HD
ENDBRANCH  35  38
ENDBRANCH   6  32
TORSDOF 11
ENDMDL
MODEL 8
REMARK VINA RESULT:      -6.2      7.436     13.180
REMARK  11 active torsions:
REMARK  status: ('A' for Active; 'I' for Inactive)
REMARK    1  A    between atoms: C_6  and  C_8 
REMARK    2  A    between atoms: C_11  and  O_12 
REMARK    3  A    between atoms: C_17  and  O_18 
REMARK    4  A    between atoms: O_18  and  C_19 
REMARK    5  A    between atoms: C_21  and  C_22 
REMARK    6  A    between atoms: C_22  and  O_24 
REMARK    7  A    between atoms: O_24  and  C_25 
REMARK    8  A    between atoms: C_27  and  O_28 
REMARK    9  A    between atoms: C_30  and  O_31 
REMARK   10  A    between atoms: C_33  and  O_34 
REMARK   11  A    between atoms: C_37  and  O_38 
ROOT
HETATM    1  O   UNK N   1      31.803  54.192  45.078  0.00  0.00    -0.287 OA
HETATM    2  C   UNK N   1      31.891  53.417  44.141  0.00  0.00     0.190 A 
HETATM    3  C   UNK N   1      31.079  53.555  42.997  0.00  0.00     0.081 A 
HETATM    4  C   UNK N   1      31.236  52.612  41.957  0.00  0.00     0.095 A 
HETATM    5  O   UNK N   1      32.147  51.646  42.053  0.00  0.00    -0.309 OA
HETATM    6  C   UNK N   1      32.924  51.479  43.124  0.00  0.00     0.090 A 
HETATM    7  C   UNK N   1      32.805  52.366  44.209  0.00  0.00     0.094 A 
HETATM    8  C   UNK N   1      30.412  52.663  40.827  0.00  0.00     0.075 A 
HETATM    9  C   UNK N   1      29.424  53.662  40.712  0.00  0.00     0.077 A 
HETATM   10  C   UNK N   1      29.304  54.625  41.716  0.00  0.00     0.074 A 
HETATM   11  C   UNK N   1      30.114  54.582  42.861  0.00  0.00     0.085 A 
ENDROOT
BRANCH   9  12
HETATM   12  O   UNK N   1      28.547  53.704  39.674  0.00  0.00    -0.318 OA
BRANCH  12  13
HETATM   13  C   UNK N   1      27.215  53.331  39.742  0.00  0.00     0.298 C 
HETATM   14  O   UNK N   1      27.083  51.942  39.484  0.00  0.00    -0.340 OA
HETATM   15  C   UNK N   1      25.739  51.534  39.703  0.00  0.00     0.255 C 
HETATM   16  C   UNK N   1      24.808  52.213  38.663  0.00  0.00     0.188 C 
HETATM   17  C   UNK N   1      24.939  53.741  38.804  0.00  0.00     0.183 C 
HETATM   18  C   UNK N   1      26.422  54.137  38.700  0.00  0.00     0.205 C 
BRANCH  15  19
HETATM   19  C   UNK N   1      25.679  50.028  39.624  0.00  0.00     0.290 C 
HETATM   20  O   UNK N   1      26.634  49.345  39.972  0.00  0.00    -0.262 OA
BRANCH  19  21
HETATM   21  O   UNK N   1      24.525  49.439  39.221  0.00  0.00    -0.320 OA
BRANCH  21  22
HETATM   22  C   UNK N   1      24.477  48.194  38.627  0.00  0.00     0.174 C 
HETATM   23  C   UNK N   1      24.925  48.311  37.179  0.00  0.00     0.034 C 
ENDBRANCH  21  22
ENDBRANCH  19  21
ENDBRANCH  15  19
BRANCH  16  24
HETATM   24  O   UNK N   1      25.196  51.814  37.371  0.00  0.00    -0.390 OA
HETATM   25  H   UNK N   1      25.705  50.967  37.467  0.00  0.00     0.210 HD
ENDBRANCH  16  24
BRANCH  17  26
HETATM   26  O   UNK N   1      24.199  54.402  37.811  0.00  0.00    -0.390 OA
HETATM   27  H   UNK N   1      23.245  54.349  38.081  0.00  0.00     0.210 HD
ENDBRANCH  17  26
BRANCH  18  28
HETATM   28  O   UNK N   1      26.577  55.510  38.955  0.00  0.00    -0.388 OA
HETATM   29  H   UNK N   1      26.839  55.597  39.908  0.00  0.00     0.210 HD
ENDBRANCH  18  28
ENDBRANCH  12  13
ENDBRANCH   9  12
BRANCH  11  30
HETATM   30  O   UNK N   1      29.951  55.509  43.829  0.00  0.00    -0.360 OA
HETATM   31  H   UNK N   1      29.847  55.265  44.760  0.00  0.00     0.217 HD
ENDBRANCH  11  30
BRANCH   6  32
HETATM   32  C   UNK N   1      33.895  50.350  43.130  0.00  0.00    -0.002 A 
HETATM   33  C   UNK N   1      33.414  49.030  43.208  0.00  0.00     0.017 A 
HETATM   34  C   UNK N   1      34.299  47.948  43.209  0.00  0.00     0.037 A 
HETATM   35  C   UNK N   1      35.681  48.169  43.154  0.00  0.00     0.065 A 
HETATM   36  C   UNK N   1      36.171  49.475  43.091  0.00  0.00     0.037 A 
HETATM   37  C   UNK N   1      35.290  50.561  43.069  0.00  0.00     0.017 A 
BRANCH  35  38
HETATM   38  O   UNK N   1      36.545  47.133  43.163  0.00  0.00    -0.361 OA
HETATM   39  H   UNK N   1      36.872  46.736  42.344  0.00  0.00     0.217 HD
ENDBRANCH  35  38
ENDBRANCH   6  32
TORSDOF 11
ENDMDL
MODEL 9
REMARK VINA RESULT:      -5.8     14.016     17.654
REMARK  11 active torsions:
REMARK  status: ('A' for Active; 'I' for Inactive)
REMARK    1  A    between atoms: C_6  and  C_8 
REMARK    2  A    between atoms: C_11  and  O_12 
REMARK    3  A    between atoms: C_17  and  O_18 
REMARK    4  A    between atoms: O_18  and  C_19 
REMARK    5  A    between atoms: C_21  and  C_22 
REMARK    6  A    between atoms: C_22  and  O_24 
REMARK    7  A    between atoms: O_24  and  C_25 
REMARK    8  A    between atoms: C_27  and  O_28 
REMARK    9  A    between atoms: C_30  and  O_31 
REMARK   10  A    between atoms: C_33  and  O_34 
REMARK   11  A    between atoms: C_37  and  O_38 
ROOT
HETATM    1  O   UNK N   1      33.285  49.371  64.495  0.00  0.00    -0.287 OA
HETATM    2  C   UNK N   1      33.763  48.282  64.227  0.00  0.00     0.190 A 
HETATM    3  C   UNK N   1      32.981  47.259  63.655  0.00  0.00     0.081 A 
HETATM    4  C   UNK N   1      33.607  46.022  63.381  0.00  0.00     0.095 A 
HETATM    5  O   UNK N   1      34.904  45.851  63.630  0.00  0.00    -0.309 OA
HETATM    6  C   UNK N   1      35.671  46.793  64.180  0.00  0.00     0.090 A 
HETATM    7  C   UNK N   1      35.109  48.041  64.504  0.00  0.00     0.094 A 
HETATM    8  C   UNK N   1      32.862  44.951  62.873  0.00  0.00     0.075 A 
HETATM    9  C   UNK N   1      31.484  45.099  62.622  0.00  0.00     0.077 A 
HETATM   10  C   UNK N   1      30.876  46.337  62.845  0.00  0.00     0.074 A 
HETATM   11  C   UNK N   1      31.605  47.417  63.364  0.00  0.00     0.085 A 
ENDROOT
BRANCH   9  12
HETATM   12  O   UNK N   1      30.703  44.067  62.207  0.00  0.00    -0.318 OA
BRANCH  12  13
HETATM   13  C   UNK N   1      31.105  43.064  61.340  0.00  0.00     0.298 C 
HETATM   14  O   UNK N   1      31.078  43.534  60.002  0.00  0.00    -0.340 OA
HETATM   15  C   UNK N   1      31.633  42.556  59.133  0.00  0.00     0.255 C 
HETATM   16  C   UNK N   1      30.731  41.293  59.119  0.00  0.00     0.188 C 
HETATM   17  C   UNK N   1      30.626  40.743  60.554  0.00  0.00     0.183 C 
HETATM   18  C   UNK N   1      30.154  41.865  61.496  0.00  0.00     0.205 C 
BRANCH  15  19
HETATM   19  C   UNK N   1      31.780  43.166  57.760  0.00  0.00     0.290 C 
HETATM   20  O   UNK N   1      32.471  44.163  57.590  0.00  0.00    -0.262 OA
BRANCH  19  21
HETATM   21  O   UNK N   1      31.184  42.555  56.705  0.00  0.00    -0.320 OA
BRANCH  21  22
HETATM   22  C   UNK N   1      31.755  42.483  55.450  0.00  0.00     0.174 C 
HETATM   23  C   UNK N   1      30.860  41.658  54.539  0.00  0.00     0.034 C 
ENDBRANCH  21  22
ENDBRANCH  19  21
ENDBRANCH  15  19
BRANCH  16  24
HETATM   24  O   UNK N   1      29.454  41.647  58.644  0.00  0.00    -0.390 OA
HETATM   25  H   UNK N   1      28.849  41.675  59.430  0.00  0.00     0.210 HD
ENDBRANCH  16  24
BRANCH  17  26
HETATM   26  O   UNK N   1      29.731  39.663  60.614  0.00  0.00    -0.390 OA
HETATM   27  H   UNK N   1      29.108  39.765  59.848  0.00  0.00     0.210 HD
ENDBRANCH  17  26
BRANCH  18  28
HETATM   28  O   UNK N   1      30.175  41.422  62.829  0.00  0.00    -0.388 OA
HETATM   29  H   UNK N   1      30.516  42.176  63.377  0.00  0.00     0.210 HD
ENDBRANCH  18  28
ENDBRANCH  12  13
ENDBRANCH   9  12
BRANCH  11  30
HETATM   30  O   UNK N   1      30.980  48.591  63.599  0.00  0.00    -0.360 OA
HETATM   31  H   UNK N   1      31.388  49.292  64.128  0.00  0.00     0.217 HD
ENDBRANCH  11  30
BRANCH   6  32
HETATM   32  C   UNK N   1      37.106  46.483  64.433  0.00  0.00    -0.002 A 
HETATM   33  C   UNK N   1      37.599  45.203  64.120  0.00  0.00     0.017 A 
HETATM   34  C   UNK N   1      38.941  44.884  64.340  0.00  0.00     0.037 A 
HETATM   35  C   UNK N   1      39.809  45.833  64.897  0.00  0.00     0.065 A 
HETATM   36  C   UNK N   1      39.328  47.102  65.225  0.00  0.00     0.037 A 
HETATM   37  C   UNK N   1      37.990  47.433  64.989  0.00  0.00     0.017 A 
BRANCH  35  38
HETATM   38  O   UNK N   1      41.105  45.532  65.121  0.00  0.00    -0.361 OA
HETATM   39  H   UNK N   1      41.454  45.422  66.017  0.00  0.00     0.217 HD
ENDBRANCH  35  38
ENDBRANCH   6  32
TORSDOF 11
ENDMDL
