MODEL 1
REMARK VINA RESULT:      -6.2      0.000      0.000
REMARK  8 active torsions:
REMARK  status: ('A' for Active; 'I' for Inactive)
REMARK    1  A    between atoms: C_6  and  C_8 
REMARK    2  A    between atoms: C_11  and  O_12 
REMARK    3  A    between atoms: C_17  and  O_18 
REMARK    4  A    between atoms: O_18  and  C_19 
REMARK    5  A    between atoms: C_22  and  O_23 
REMARK    6  A    between atoms: C_25  and  O_26 
REMARK    7  A    between atoms: C_28  and  O_29 
REMARK    8  A    between atoms: C_33  and  O_34 
ROOT
HETATM    1  O   UNK N   1      32.605  54.840  44.726  0.00  0.00    -0.287 OA
HETATM    2  C   UNK N   1      32.414  53.895  43.983  0.00  0.00     0.190 A 
HETATM    3  C   UNK N   1      31.359  53.903  43.044  0.00  0.00     0.081 A 
HETATM    4  C   UNK N   1      31.209  52.770  42.220  0.00  0.00     0.095 A 
HETATM    5  O   UNK N   1      32.047  51.747  42.312  0.00  0.00    -0.309 OA
HETATM    6  C   UNK N   1      33.042  51.694  43.189  0.00  0.00     0.090 A 
HETATM    7  C   UNK N   1      33.250  52.775  44.064  0.00  0.00     0.094 A 
HETATM    8  C   UNK N   1      30.170  52.695  41.302  0.00  0.00     0.075 A 
HETATM    9  C   UNK N   1      29.254  53.751  41.162  0.00  0.00     0.077 A 
HETATM   10  C   UNK N   1      29.407  54.894  41.957  0.00  0.00     0.074 A 
HETATM   11  C   UNK N   1      30.450  54.983  42.901  0.00  0.00     0.085 A 
ENDROOT
BRANCH   9  12
HETATM   12  O   UNK N   1      28.217  53.689  40.278  0.00  0.00    -0.318 OA
BRANCH  12  13
HETATM   13  C   UNK N   1      26.873  53.760  40.634  0.00  0.00     0.298 C 
HETATM   14  O   UNK N   1      26.440  52.578  41.296  0.00  0.00    -0.351 OA
HETATM   15  C   UNK N   1      26.565  51.433  40.465  0.00  0.00     0.152 C 
HETATM   16  C   UNK N   1      25.640  51.554  39.232  0.00  0.00     0.178 C 
HETATM   17  C   UNK N   1      26.208  50.205  41.305  0.00  0.00     0.042 C 
HETATM   18  C   UNK N   1      26.003  52.847  38.467  0.00  0.00     0.183 C 
HETATM   19  C   UNK N   1      25.971  54.053  39.421  0.00  0.00     0.205 C 
BRANCH  16  20
HETATM   20  O   UNK N   1      25.807  50.433  38.402  0.00  0.00    -0.390 OA
HETATM   21  H   UNK N   1      25.769  50.759  37.465  0.00  0.00     0.210 HD
ENDBRANCH  16  20
BRANCH  18  22
HETATM   22  O   UNK N   1      25.158  53.051  37.361  0.00  0.00    -0.390 OA
HETATM   23  H   UNK N   1      24.817  52.165  37.070  0.00  0.00     0.210 HD
ENDBRANCH  18  22
BRANCH  19  24
HETATM   24  O   UNK N   1      24.654  54.268  39.864  0.00  0.00    -0.388 OA
HETATM   25  H   UNK N   1      24.711  54.557  40.812  0.00  0.00     0.210 HD
ENDBRANCH  19  24
ENDBRANCH  12  13
ENDBRANCH   9  12
BRANCH  11  26
HETATM   26  O   UNK N   1      30.572  56.089  43.664  0.00  0.00    -0.360 OA
HETATM   27  H   UNK N   1      29.912  56.798  43.648  0.00  0.00     0.217 HD
ENDBRANCH  11  26
BRANCH   6  28
HETATM   28  C   UNK N   1      33.892  50.475  43.197  0.00  0.00    -0.002 A 
HETATM   29  C   UNK N   1      35.290  50.618  43.110  0.00  0.00     0.017 A 
HETATM   30  C   UNK N   1      36.121  49.496  43.111  0.00  0.00     0.037 A 
HETATM   31  C   UNK N   1      35.567  48.212  43.173  0.00  0.00     0.065 A 
HETATM   32  C   UNK N   1      34.179  48.058  43.247  0.00  0.00     0.037 A 
HETATM   33  C   UNK N   1      33.343  49.180  43.269  0.00  0.00     0.017 A 
BRANCH  31  34
HETATM   34  O   UNK N   1      36.361  47.121  43.162  0.00  0.00    -0.361 OA
HETATM   35  H   UNK N   1      37.231  47.132  42.739  0.00  0.00     0.217 HD
ENDBRANCH  31  34
ENDBRANCH   6  28
TORSDOF 8
ENDMDL
MODEL 2
REMARK VINA RESULT:      -5.9      6.761     11.736
REMARK  8 active torsions:
REMARK  status: ('A' for Active; 'I' for Inactive)
REMARK    1  A    between atoms: C_6  and  C_8 
REMARK    2  A    between atoms: C_11  and  O_12 
REMARK    3  A    between atoms: C_17  and  O_18 
REMARK    4  A    between atoms: O_18  and  C_19 
REMARK    5  A    between atoms: C_22  and  O_23 
REMARK    6  A    between atoms: C_25  and  O_26 
REMARK    7  A    between atoms: C_28  and  O_29 
REMARK    8  A    between atoms: C_33  and  O_34 
ROOT
HETATM    1  O   UNK N   1      43.882  48.185  46.770  0.00  0.00    -0.287 OA
HETATM    2  C   UNK N   1      42.790  47.830  47.174  0.00  0.00     0.190 A 
HETATM    3  C   UNK N   1      41.600  48.281  46.562  0.00  0.00     0.081 A 
HETATM    4  C   UNK N   1      40.379  47.821  47.091  0.00  0.00     0.095 A 
HETATM    5  O   UNK N   1      40.355  46.976  48.113  0.00  0.00    -0.309 OA
HETATM    6  C   UNK N   1      41.449  46.540  48.724  0.00  0.00     0.090 A 
HETATM    7  C   UNK N   1      42.711  46.966  48.273  0.00  0.00     0.094 A 
HETATM    8  C   UNK N   1      39.170  48.254  46.562  0.00  0.00     0.075 A 
HETATM    9  C   UNK N   1      39.136  49.148  45.478  0.00  0.00     0.077 A 
HETATM   10  C   UNK N   1      40.344  49.593  44.927  0.00  0.00     0.074 A 
HETATM   11  C   UNK N   1      41.580  49.171  45.458  0.00  0.00     0.085 A 
ENDROOT
BRANCH   9  12
HETATM   12  O   UNK N   1      37.959  49.599  44.956  0.00  0.00    -0.318 OA
BRANCH  12  13
HETATM   13  C   UNK N   1      37.791  50.022  43.642  0.00  0.00     0.298 C 
HETATM   14  O   UNK N   1      36.651  50.861  43.500  0.00  0.00    -0.351 OA
HETATM   15  C   UNK N   1      35.453  50.184  43.850  0.00  0.00     0.152 C 
HETATM   16  C   UNK N   1      35.194  49.005  42.884  0.00  0.00     0.178 C 
HETATM   17  C   UNK N   1      34.310  51.200  43.798  0.00  0.00     0.042 C 
HETATM   18  C   UNK N   1      36.412  48.053  42.930  0.00  0.00     0.183 C 
HETATM   19  C   UNK N   1      37.707  48.838  42.661  0.00  0.00     0.205 C 
BRANCH  16  20
HETATM   20  O   UNK N   1      34.029  48.322  43.269  0.00  0.00    -0.390 OA
HETATM   21  H   UNK N   1      33.640  48.822  44.033  0.00  0.00     0.210 HD
ENDBRANCH  16  20
BRANCH  18  22
HETATM   22  O   UNK N   1      36.270  46.984  42.027  0.00  0.00    -0.390 OA
HETATM   23  H   UNK N   1      36.264  46.141  42.552  0.00  0.00     0.210 HD
ENDBRANCH  18  22
BRANCH  19  24
HETATM   24  O   UNK N   1      37.696  49.328  41.342  0.00  0.00    -0.388 OA
HETATM   25  H   UNK N   1      37.643  48.540  40.741  0.00  0.00     0.210 HD
ENDBRANCH  19  24
ENDBRANCH  12  13
ENDBRANCH   9  12
BRANCH  11  26
HETATM   26  O   UNK N   1      42.732  49.621  44.916  0.00  0.00    -0.360 OA
HETATM   27  H   UNK N   1      43.208  49.122  44.236  0.00  0.00     0.217 HD
ENDBRANCH  11  26
BRANCH   6  28
HETATM   28  C   UNK N   1      41.275  45.612  49.873  0.00  0.00    -0.002 A 
HETATM   29  C   UNK N   1      42.127  45.739  50.986  0.00  0.00     0.017 A 
HETATM   30  C   UNK N   1      41.997  44.883  52.082  0.00  0.00     0.037 A 
HETATM   31  C   UNK N   1      41.031  43.870  52.071  0.00  0.00     0.065 A 
HETATM   32  C   UNK N   1      40.190  43.726  50.964  0.00  0.00     0.037 A 
HETATM   33  C   UNK N   1      40.300  44.595  49.873  0.00  0.00     0.017 A 
BRANCH  31  34
HETATM   34  O   UNK N   1      40.906  43.030  53.119  0.00  0.00    -0.361 OA
HETATM   35  H   UNK N   1      40.368  43.259  53.890  0.00  0.00     0.217 HD
ENDBRANCH  31  34
ENDBRANCH   6  28
TORSDOF 8
ENDMDL
MODEL 3
REMARK VINA RESULT:      -5.9      1.036      2.193
REMARK  8 active torsions:
REMARK  status: ('A' for Active; 'I' for Inactive)
REMARK    1  A    between atoms: C_6  and  C_8 
REMARK    2  A    between atoms: C_11  and  O_12 
REMARK    3  A    between atoms: C_17  and  O_18 
REMARK    4  A    between atoms: O_18  and  C_19 
REMARK    5  A    between atoms: C_22  and  O_23 
REMARK    6  A    between atoms: C_25  and  O_26 
REMARK    7  A    between atoms: C_28  and  O_29 
REMARK    8  A    between atoms: C_33  and  O_34 
ROOT
HETATM    1  O   UNK N   1      31.660  53.989  45.081  0.00  0.00    -0.287 OA
HETATM    2  C   UNK N   1      31.827  53.238  44.137  0.00  0.00     0.190 A 
HETATM    3  C   UNK N   1      31.099  53.397  42.937  0.00  0.00     0.081 A 
HETATM    4  C   UNK N   1      31.355  52.487  41.894  0.00  0.00     0.095 A 
HETATM    5  O   UNK N   1      32.265  51.532  42.030  0.00  0.00    -0.309 OA
HETATM    6  C   UNK N   1      32.960  51.341  43.145  0.00  0.00     0.090 A 
HETATM    7  C   UNK N   1      32.752  52.193  44.244  0.00  0.00     0.094 A 
HETATM    8  C   UNK N   1      30.648  52.561  40.700  0.00  0.00     0.075 A 
HETATM    9  C   UNK N   1      29.673  53.553  40.501  0.00  0.00     0.077 A 
HETATM   10  C   UNK N   1      29.427  54.479  41.522  0.00  0.00     0.074 A 
HETATM   11  C   UNK N   1      30.129  54.413  42.742  0.00  0.00     0.085 A 
ENDROOT
BRANCH   9  12
HETATM   12  O   UNK N   1      28.955  53.631  39.343  0.00  0.00    -0.318 OA
BRANCH  12  13
HETATM   13  C   UNK N   1      28.267  52.566  38.770  0.00  0.00     0.298 C 
HETATM   14  O   UNK N   1      27.352  53.006  37.773  0.00  0.00    -0.351 OA
HETATM   15  C   UNK N   1      26.361  53.869  38.313  0.00  0.00     0.152 C 
HETATM   16  C   UNK N   1      25.487  53.115  39.342  0.00  0.00     0.178 C 
HETATM   17  C   UNK N   1      25.516  54.394  37.150  0.00  0.00     0.042 C 
HETATM   18  C   UNK N   1      26.406  52.551  40.450  0.00  0.00     0.183 C 
HETATM   19  C   UNK N   1      27.537  51.716  39.825  0.00  0.00     0.205 C 
BRANCH  16  20
HETATM   20  O   UNK N   1      24.541  53.994  39.895  0.00  0.00    -0.390 OA
HETATM   21  H   UNK N   1      24.652  54.866  39.435  0.00  0.00     0.210 HD
ENDBRANCH  16  20
BRANCH  18  22
HETATM   22  O   UNK N   1      25.682  51.800  41.393  0.00  0.00    -0.390 OA
HETATM   23  H   UNK N   1      26.011  50.864  41.355  0.00  0.00     0.210 HD
ENDBRANCH  18  22
BRANCH  19  24
HETATM   24  O   UNK N   1      26.994  50.575  39.208  0.00  0.00    -0.388 OA
HETATM   25  H   UNK N   1      26.099  50.425  39.612  0.00  0.00     0.210 HD
ENDBRANCH  19  24
ENDBRANCH  12  13
ENDBRANCH   9  12
BRANCH  11  26
HETATM   26  O   UNK N   1      29.868  55.311  43.716  0.00  0.00    -0.360 OA
HETATM   27  H   UNK N   1      30.550  55.605  44.338  0.00  0.00     0.217 HD
ENDBRANCH  11  26
BRANCH   6  28
HETATM   28  C   UNK N   1      33.934  50.218  43.168  0.00  0.00    -0.002 A 
HETATM   29  C   UNK N   1      35.308  50.506  43.079  0.00  0.00     0.017 A 
HETATM   30  C   UNK N   1      36.253  49.478  43.093  0.00  0.00     0.037 A 
HETATM   31  C   UNK N   1      35.837  48.143  43.171  0.00  0.00     0.065 A 
HETATM   32  C   UNK N   1      34.473  47.846  43.247  0.00  0.00     0.037 A 
HETATM   33  C   UNK N   1      33.523  48.874  43.255  0.00  0.00     0.017 A 
BRANCH  31  34
HETATM   34  O   UNK N   1      36.740  47.142  43.174  0.00  0.00    -0.361 OA
HETATM   35  H   UNK N   1      36.496  46.239  42.925  0.00  0.00     0.217 HD
ENDBRANCH  31  34
ENDBRANCH   6  28
TORSDOF 8
ENDMDL
MODEL 4
REMARK VINA RESULT:      -5.6     16.085     18.236
REMARK  8 active torsions:
REMARK  status: ('A' for Active; 'I' for Inactive)
REMARK    1  A    between atoms: C_6  and  C_8 
REMARK    2  A    between atoms: C_11  and  O_12 
REMARK    3  A    between atoms: C_17  and  O_18 
REMARK    4  A    between atoms: O_18  and  C_19 
REMARK    5  A    between atoms: C_22  and  O_23 
REMARK    6  A    between atoms: C_25  and  O_26 
REMARK    7  A    between atoms: C_28  and  O_29 
REMARK    8  A    between atoms: C_33  and  O_34 
ROOT
HETATM    1  O   UNK N   1      27.749  41.317  60.579  0.00  0.00    -0.287 OA
HETATM    2  C   UNK N   1      28.641  41.628  59.811  0.00  0.00     0.190 A 
HETATM    3  C   UNK N   1      28.444  41.615  58.413  0.00  0.00     0.081 A 
HETATM    4  C   UNK N   1      29.528  41.991  57.597  0.00  0.00     0.095 A 
HETATM    5  O   UNK N   1      30.682  42.367  58.129  0.00  0.00    -0.309 OA
HETATM    6  C   UNK N   1      30.913  42.381  59.436  0.00  0.00     0.090 A 
HETATM    7  C   UNK N   1      29.891  41.999  60.323  0.00  0.00     0.094 A 
HETATM    8  C   UNK N   1      29.415  41.964  56.213  0.00  0.00     0.075 A 
HETATM    9  C   UNK N   1      28.214  41.574  55.595  0.00  0.00     0.077 A 
HETATM   10  C   UNK N   1      27.121  41.222  56.396  0.00  0.00     0.074 A 
HETATM   11  C   UNK N   1      27.221  41.235  57.802  0.00  0.00     0.085 A 
ENDROOT
BRANCH   9  12
HETATM   12  O   UNK N   1      28.089  41.524  54.238  0.00  0.00    -0.318 OA
BRANCH  12  13
HETATM   13  C   UNK N   1      28.120  42.636  53.402  0.00  0.00     0.298 C 
HETATM   14  O   UNK N   1      26.812  43.043  53.018  0.00  0.00    -0.351 OA
HETATM   15  C   UNK N   1      26.135  42.026  52.293  0.00  0.00     0.152 C 
HETATM   16  C   UNK N   1      26.862  41.735  50.960  0.00  0.00     0.178 C 
HETATM   17  C   UNK N   1      24.702  42.502  52.049  0.00  0.00     0.042 C 
HETATM   18  C   UNK N   1      28.320  41.329  51.271  0.00  0.00     0.183 C 
HETATM   19  C   UNK N   1      28.990  42.396  52.154  0.00  0.00     0.205 C 
BRANCH  16  20
HETATM   20  O   UNK N   1      26.204  40.700  50.277  0.00  0.00    -0.390 OA
HETATM   21  H   UNK N   1      25.398  41.097  49.854  0.00  0.00     0.210 HD
ENDBRANCH  16  20
BRANCH  18  22
HETATM   22  O   UNK N   1      29.060  41.106  50.096  0.00  0.00    -0.390 OA
HETATM   23  H   UNK N   1      30.016  41.285  50.299  0.00  0.00     0.210 HD
ENDBRANCH  18  22
BRANCH  19  24
HETATM   24  O   UNK N   1      29.109  43.598  51.433  0.00  0.00    -0.388 OA
HETATM   25  H   UNK N   1      29.746  44.172  51.932  0.00  0.00     0.210 HD
ENDBRANCH  19  24
ENDBRANCH  12  13
ENDBRANCH   9  12
BRANCH  11  26
HETATM   26  O   UNK N   1      26.157  40.882  58.554  0.00  0.00    -0.360 OA
HETATM   27  H   UNK N   1      26.145  40.062  59.071  0.00  0.00     0.217 HD
ENDBRANCH  11  26
BRANCH   6  28
HETATM   28  C   UNK N   1      32.262  42.804  59.895  0.00  0.00    -0.002 A 
HETATM   29  C   UNK N   1      33.320  42.832  58.967  0.00  0.00     0.017 A 
HETATM   30  C   UNK N   1      34.602  43.219  59.361  0.00  0.00     0.037 A 
HETATM   31  C   UNK N   1      34.854  43.560  60.695  0.00  0.00     0.065 A 
HETATM   32  C   UNK N   1      33.813  43.522  61.628  0.00  0.00     0.037 A 
HETATM   33  C   UNK N   1      32.521  43.156  61.234  0.00  0.00     0.017 A 
BRANCH  31  34
HETATM   34  O   UNK N   1      36.091  43.924  61.090  0.00  0.00    -0.361 OA
HETATM   35  H   UNK N   1      36.710  43.284  61.469  0.00  0.00     0.217 HD
ENDBRANCH  31  34
ENDBRANCH   6  28
TORSDOF 8
ENDMDL
MODEL 5
REMARK VINA RESULT:      -5.6     18.513     21.134
REMARK  8 active torsions:
REMARK  status: ('A' for Active; 'I' for Inactive)
REMARK    1  A    between atoms: C_6  and  C_8 
REMARK    2  A    between atoms: C_11  and  O_12 
REMARK    3  A    between atoms: C_17  and  O_18 
REMARK    4  A    between atoms: O_18  and  C_19 
REMARK    5  A    between atoms: C_22  and  O_23 
REMARK    6  A    between atoms: C_25  and  O_26 
REMARK    7  A    between atoms: C_28  and  O_29 
REMARK    8  A    between atoms: C_33  and  O_34 
ROOT
HETATM    1  O   UNK N   1      31.936  42.958  64.704  0.00  0.00    -0.287 OA
HETATM    2  C   UNK N   1      32.535  43.294  63.699  0.00  0.00     0.190 A 
HETATM    3  C   UNK N   1      32.074  42.932  62.415  0.00  0.00     0.081 A 
HETATM    4  C   UNK N   1      32.826  43.365  61.305  0.00  0.00     0.095 A 
HETATM    5  O   UNK N   1      33.914  44.106  61.467  0.00  0.00    -0.309 OA
HETATM    6  C   UNK N   1      34.387  44.456  62.656  0.00  0.00     0.090 A 
HETATM    7  C   UNK N   1      33.709  44.048  63.819  0.00  0.00     0.094 A 
HETATM    8  C   UNK N   1      32.451  43.013  60.015  0.00  0.00     0.075 A 
HETATM    9  C   UNK N   1      31.307  42.230  59.785  0.00  0.00     0.077 A 
HETATM   10  C   UNK N   1      30.536  41.815  60.879  0.00  0.00     0.074 A 
HETATM   11  C   UNK N   1      30.908  42.155  62.195  0.00  0.00     0.085 A 
ENDROOT
BRANCH   9  12
HETATM   12  O   UNK N   1      30.933  41.859  58.527  0.00  0.00    -0.318 OA
BRANCH  12  13
HETATM   13  C   UNK N   1      29.728  42.214  57.926  0.00  0.00     0.298 C 
HETATM   14  O   UNK N   1      28.792  41.143  57.951  0.00  0.00    -0.351 OA
HETATM   15  C   UNK N   1      29.267  40.011  57.238  0.00  0.00     0.152 C 
HETATM   16  C   UNK N   1      29.439  40.347  55.738  0.00  0.00     0.178 C 
HETATM   17  C   UNK N   1      28.260  38.876  57.438  0.00  0.00     0.042 C 
HETATM   18  C   UNK N   1      30.410  41.542  55.609  0.00  0.00     0.183 C 
HETATM   19  C   UNK N   1      29.929  42.713  56.483  0.00  0.00     0.205 C 
BRANCH  16  20
HETATM   20  O   UNK N   1      29.948  39.230  55.057  0.00  0.00    -0.390 OA
HETATM   21  H   UNK N   1      29.171  38.744  54.675  0.00  0.00     0.210 HD
ENDBRANCH  16  20
BRANCH  18  22
HETATM   22  O   UNK N   1      30.567  41.942  54.269  0.00  0.00    -0.390 OA
HETATM   23  H   UNK N   1      31.500  41.738  53.998  0.00  0.00     0.210 HD
ENDBRANCH  18  22
BRANCH  19  24
HETATM   24  O   UNK N   1      28.707  43.200  55.987  0.00  0.00    -0.388 OA
HETATM   25  H   UNK N   1      28.374  43.867  56.643  0.00  0.00     0.210 HD
ENDBRANCH  19  24
ENDBRANCH  12  13
ENDBRANCH   9  12
BRANCH  11  26
HETATM   26  O   UNK N   1      30.156  41.735  63.234  0.00  0.00    -0.360 OA
HETATM   27  H   UNK N   1      30.546  41.296  64.004  0.00  0.00     0.217 HD
ENDBRANCH  11  26
BRANCH   6  28
HETATM   28  C   UNK N   1      35.630  45.271  62.693  0.00  0.00    -0.002 A 
HETATM   29  C   UNK N   1      35.546  46.626  63.062  0.00  0.00     0.017 A 
HETATM   30  C   UNK N   1      36.690  47.425  63.104  0.00  0.00     0.037 A 
HETATM   31  C   UNK N   1      37.935  46.888  62.752  0.00  0.00     0.065 A 
HETATM   32  C   UNK N   1      38.027  45.546  62.370  0.00  0.00     0.037 A 
HETATM   33  C   UNK N   1      36.887  44.736  62.348  0.00  0.00     0.017 A 
BRANCH  31  34
HETATM   34  O   UNK N   1      39.044  47.653  62.776  0.00  0.00    -0.361 OA
HETATM   35  H   UNK N   1      39.803  47.428  63.334  0.00  0.00     0.217 HD
ENDBRANCH  31  34
ENDBRANCH   6  28
TORSDOF 8
ENDMDL
MODEL 6
REMARK VINA RESULT:      -5.5     15.593     18.048
REMARK  8 active torsions:
REMARK  status: ('A' for Active; 'I' for Inactive)
REMARK    1  A    between atoms: C_6  and  C_8 
REMARK    2  A    between atoms: C_11  and  O_12 
REMARK    3  A    between atoms: C_17  and  O_18 
REMARK    4  A    between atoms: O_18  and  C_19 
REMARK    5  A    between atoms: C_22  and  O_23 
REMARK    6  A    between atoms: C_25  and  O_26 
REMARK    7  A    between atoms: C_28  and  O_29 
REMARK    8  A    between atoms: C_33  and  O_34 
ROOT
HETATM    1  O   UNK N   1      31.428  42.244  60.023  0.00  0.00    -0.287 OA
HETATM    2  C   UNK N   1      30.743  42.713  59.132  0.00  0.00     0.190 A 
HETATM    3  C   UNK N   1      30.355  44.071  59.144  0.00  0.00     0.081 A 
HETATM    4  C   UNK N   1      29.564  44.532  58.074  0.00  0.00     0.095 A 
HETATM    5  O   UNK N   1      29.219  43.722  57.083  0.00  0.00    -0.309 OA
HETATM    6  C   UNK N   1      29.552  42.438  57.041  0.00  0.00     0.090 A 
HETATM    7  C   UNK N   1      30.324  41.889  58.080  0.00  0.00     0.094 A 
HETATM    8  C   UNK N   1      29.115  45.846  58.041  0.00  0.00     0.075 A 
HETATM    9  C   UNK N   1      29.451  46.749  59.065  0.00  0.00     0.077 A 
HETATM   10  C   UNK N   1      30.258  46.309  60.121  0.00  0.00     0.074 A 
HETATM   11  C   UNK N   1      30.714  44.976  60.175  0.00  0.00     0.085 A 
ENDROOT
BRANCH   9  12
HETATM   12  O   UNK N   1      29.005  48.038  59.059  0.00  0.00    -0.318 OA
BRANCH  12  13
HETATM   13  C   UNK N   1      29.800  49.146  58.783  0.00  0.00     0.298 C 
HETATM   14  O   UNK N   1      29.214  50.349  59.265  0.00  0.00    -0.351 OA
HETATM   15  C   UNK N   1      27.958  50.605  58.653  0.00  0.00     0.152 C 
HETATM   16  C   UNK N   1      28.132  50.836  57.134  0.00  0.00     0.178 C 
HETATM   17  C   UNK N   1      27.350  51.834  59.332  0.00  0.00     0.042 C 
HETATM   18  C   UNK N   1      28.813  49.591  56.521  0.00  0.00     0.183 C 
HETATM   19  C   UNK N   1      30.112  49.271  57.280  0.00  0.00     0.205 C 
BRANCH  16  20
HETATM   20  O   UNK N   1      26.878  51.046  56.540  0.00  0.00    -0.390 OA
HETATM   21  H   UNK N   1      26.520  50.154  56.295  0.00  0.00     0.210 HD
ENDBRANCH  16  20
BRANCH  18  22
HETATM   22  O   UNK N   1      29.057  49.756  55.146  0.00  0.00    -0.390 OA
HETATM   23  H   UNK N   1      28.469  50.487  54.818  0.00  0.00     0.210 HD
ENDBRANCH  18  22
BRANCH  19  24
HETATM   24  O   UNK N   1      31.041  50.309  57.084  0.00  0.00    -0.388 OA
HETATM   25  H   UNK N   1      30.518  51.145  56.966  0.00  0.00     0.210 HD
ENDBRANCH  19  24
ENDBRANCH  12  13
ENDBRANCH   9  12
BRANCH  11  26
HETATM   26  O   UNK N   1      31.483  44.571  61.208  0.00  0.00    -0.360 OA
HETATM   27  H   UNK N   1      32.383  44.905  61.338  0.00  0.00     0.217 HD
ENDBRANCH  11  26
BRANCH   6  28
HETATM   28  C   UNK N   1      29.079  41.639  55.880  0.00  0.00    -0.002 A 
HETATM   29  C   UNK N   1      28.450  42.300  54.809  0.00  0.00     0.017 A 
HETATM   30  C   UNK N   1      27.988  41.584  53.703  0.00  0.00     0.037 A 
HETATM   31  C   UNK N   1      28.125  40.191  53.662  0.00  0.00     0.065 A 
HETATM   32  C   UNK N   1      28.737  39.523  54.727  0.00  0.00     0.037 A 
HETATM   33  C   UNK N   1      29.221  40.239  55.827  0.00  0.00     0.017 A 
BRANCH  31  34
HETATM   34  O   UNK N   1      27.672  39.488  52.604  0.00  0.00    -0.361 OA
HETATM   35  H   UNK N   1      27.058  39.875  51.963  0.00  0.00     0.217 HD
ENDBRANCH  31  34
ENDBRANCH   6  28
TORSDOF 8
ENDMDL
MODEL 7
REMARK VINA RESULT:      -5.4      1.742      2.442
REMARK  8 active torsions:
REMARK  status: ('A' for Active; 'I' for Inactive)
REMARK    1  A    between atoms: C_6  and  C_8 
REMARK    2  A    between atoms: C_11  and  O_12 
REMARK    3  A    between atoms: C_17  and  O_18 
REMARK    4  A    between atoms: O_18  and  C_19 
REMARK    5  A    between atoms: C_22  and  O_23 
REMARK    6  A    between atoms: C_25  and  O_26 
REMARK    7  A    between atoms: C_28  and  O_29 
REMARK    8  A    between atoms: C_33  and  O_34 
ROOT
HETATM    1  O   UNK N   1      33.798  54.737  45.344  0.00  0.00    -0.287 OA
HETATM    2  C   UNK N   1      33.404  53.876  44.579  0.00  0.00     0.190 A 
HETATM    3  C   UNK N   1      32.253  54.072  43.785  0.00  0.00     0.081 A 
HETATM    4  C   UNK N   1      31.867  53.027  42.925  0.00  0.00     0.095 A 
HETATM    5  O   UNK N   1      32.577  51.910  42.849  0.00  0.00    -0.309 OA
HETATM    6  C   UNK N   1      33.657  51.681  43.586  0.00  0.00     0.090 A 
HETATM    7  C   UNK N   1      34.100  52.664  44.488  0.00  0.00     0.094 A 
HETATM    8  C   UNK N   1      30.723  53.137  42.144  0.00  0.00     0.075 A 
HETATM    9  C   UNK N   1      29.933  54.299  42.184  0.00  0.00     0.077 A 
HETATM   10  C   UNK N   1      30.320  55.356  43.017  0.00  0.00     0.074 A 
HETATM   11  C   UNK N   1      31.473  55.257  43.822  0.00  0.00     0.085 A 
ENDROOT
BRANCH   9  12
HETATM   12  O   UNK N   1      28.797  54.420  41.439  0.00  0.00    -0.318 OA
BRANCH  12  13
HETATM   13  C   UNK N   1      28.551  55.451  40.537  0.00  0.00     0.298 C 
HETATM   14  O   UNK N   1      27.241  55.371  39.990  0.00  0.00    -0.351 OA
HETATM   15  C   UNK N   1      27.043  54.164  39.269  0.00  0.00     0.152 C 
HETATM   16  C   UNK N   1      27.984  54.105  38.043  0.00  0.00     0.178 C 
HETATM   17  C   UNK N   1      25.575  54.110  38.841  0.00  0.00     0.042 C 
HETATM   18  C   UNK N   1      29.443  54.234  38.534  0.00  0.00     0.183 C 
HETATM   19  C   UNK N   1      29.598  55.490  39.409  0.00  0.00     0.205 C 
BRANCH  16  20
HETATM   20  O   UNK N   1      27.804  52.887  37.366  0.00  0.00    -0.390 OA
HETATM   21  H   UNK N   1      26.889  52.569  37.580  0.00  0.00     0.210 HD
ENDBRANCH  16  20
BRANCH  18  22
HETATM   22  O   UNK N   1      30.354  54.247  37.462  0.00  0.00    -0.390 OA
HETATM   23  H   UNK N   1      30.378  55.170  37.095  0.00  0.00     0.210 HD
ENDBRANCH  18  22
BRANCH  19  24
HETATM   24  O   UNK N   1      29.391  56.639  38.624  0.00  0.00    -0.388 OA
HETATM   25  H   UNK N   1      28.502  56.537  38.192  0.00  0.00     0.210 HD
ENDBRANCH  19  24
ENDBRANCH  12  13
ENDBRANCH   9  12
BRANCH  11  26
HETATM   26  O   UNK N   1      31.821  56.285  44.625  0.00  0.00    -0.360 OA
HETATM   27  H   UNK N   1      32.588  56.237  45.216  0.00  0.00     0.217 HD
ENDBRANCH  11  26
BRANCH   6  28
HETATM   28  C   UNK N   1      34.345  50.375  43.416  0.00  0.00    -0.002 A 
HETATM   29  C   UNK N   1      35.737  50.361  43.206  0.00  0.00     0.017 A 
HETATM   30  C   UNK N   1      36.419  49.154  43.037  0.00  0.00     0.037 A 
HETATM   31  C   UNK N   1      35.717  47.943  43.050  0.00  0.00     0.065 A 
HETATM   32  C   UNK N   1      34.332  47.947  43.245  0.00  0.00     0.037 A 
HETATM   33  C   UNK N   1      33.647  49.152  43.436  0.00  0.00     0.017 A 
BRANCH  31  34
HETATM   34  O   UNK N   1      36.364  46.772  42.876  0.00  0.00    -0.361 OA
HETATM   35  H   UNK N   1      36.973  46.426  43.544  0.00  0.00     0.217 HD
ENDBRANCH  31  34
ENDBRANCH   6  28
TORSDOF 8
ENDMDL
MODEL 8
REMARK VINA RESULT:      -5.4     14.926     18.709
REMARK  8 active torsions:
REMARK  status: ('A' for Active; 'I' for Inactive)
REMARK    1  A    between atoms: C_6  and  C_8 
REMARK    2  A    between atoms: C_11  and  O_12 
REMARK    3  A    between atoms: C_17  and  O_18 
REMARK    4  A    between atoms: O_18  and  C_19 
REMARK    5  A    between atoms: C_22  and  O_23 
REMARK    6  A    between atoms: C_25  and  O_26 
REMARK    7  A    between atoms: C_28  and  O_29 
REMARK    8  A    between atoms: C_33  and  O_34 
ROOT
HETATM    1  O   UNK N   1      27.715  38.354  53.068  0.00  0.00    -0.287 OA
HETATM    2  C   UNK N   1      27.666  39.561  53.219  0.00  0.00     0.190 A 
HETATM    3  C   UNK N   1      28.335  40.194  54.289  0.00  0.00     0.081 A 
HETATM    4  C   UNK N   1      28.228  41.595  54.389  0.00  0.00     0.095 A 
HETATM    5  O   UNK N   1      27.542  42.291  53.494  0.00  0.00    -0.309 OA
HETATM    6  C   UNK N   1      26.888  41.734  52.482  0.00  0.00     0.090 A 
HETATM    7  C   UNK N   1      26.924  40.338  52.319  0.00  0.00     0.094 A 
HETATM    8  C   UNK N   1      28.830  42.278  55.438  0.00  0.00     0.075 A 
HETATM    9  C   UNK N   1      29.571  41.590  56.415  0.00  0.00     0.077 A 
HETATM   10  C   UNK N   1      29.706  40.200  56.312  0.00  0.00     0.074 A 
HETATM   11  C   UNK N   1      29.094  39.491  55.259  0.00  0.00     0.085 A 
ENDROOT
BRANCH   9  12
HETATM   12  O   UNK N   1      30.154  42.241  57.463  0.00  0.00    -0.318 OA
BRANCH  12  13
HETATM   13  C   UNK N   1      31.327  42.984  57.374  0.00  0.00     0.298 C 
HETATM   14  O   UNK N   1      32.265  42.608  58.376  0.00  0.00    -0.351 OA
HETATM   15  C   UNK N   1      31.757  42.832  59.683  0.00  0.00     0.152 C 
HETATM   16  C   UNK N   1      31.514  44.340  59.920  0.00  0.00     0.178 C 
HETATM   17  C   UNK N   1      32.774  42.273  60.681  0.00  0.00     0.042 C 
HETATM   18  C   UNK N   1      30.536  44.857  58.840  0.00  0.00     0.183 C 
HETATM   19  C   UNK N   1      31.057  44.498  57.438  0.00  0.00     0.205 C 
BRANCH  16  20
HETATM   20  O   UNK N   1      30.973  44.538  61.201  0.00  0.00    -0.390 OA
HETATM   21  H   UNK N   1      31.732  44.530  61.840  0.00  0.00     0.210 HD
ENDBRANCH  16  20
BRANCH  18  22
HETATM   22  O   UNK N   1      30.314  46.241  58.960  0.00  0.00    -0.390 OA
HETATM   23  H   UNK N   1      29.815  46.540  58.155  0.00  0.00     0.210 HD
ENDBRANCH  18  22
BRANCH  19  24
HETATM   24  O   UNK N   1      32.254  45.193  57.188  0.00  0.00    -0.388 OA
HETATM   25  H   UNK N   1      32.359  45.242  56.202  0.00  0.00     0.210 HD
ENDBRANCH  19  24
ENDBRANCH  12  13
ENDBRANCH   9  12
BRANCH  11  26
HETATM   26  O   UNK N   1      29.229  38.149  55.186  0.00  0.00    -0.360 OA
HETATM   27  H   UNK N   1      29.777  37.726  54.509  0.00  0.00     0.217 HD
ENDBRANCH  11  26
BRANCH   6  28
HETATM   28  C   UNK N   1      26.139  42.633  51.565  0.00  0.00    -0.002 A 
HETATM   29  C   UNK N   1      25.522  43.783  52.091  0.00  0.00     0.017 A 
HETATM   30  C   UNK N   1      24.806  44.649  51.263  0.00  0.00     0.037 A 
HETATM   31  C   UNK N   1      24.674  44.366  49.898  0.00  0.00     0.065 A 
HETATM   32  C   UNK N   1      25.271  43.218  49.367  0.00  0.00     0.037 A 
HETATM   33  C   UNK N   1      26.008  42.358  50.189  0.00  0.00     0.017 A 
BRANCH  31  34
HETATM   34  O   UNK N   1      23.974  45.189  49.091  0.00  0.00    -0.361 OA
HETATM   35  H   UNK N   1      24.406  45.896  48.591  0.00  0.00     0.217 HD
ENDBRANCH  31  34
ENDBRANCH   6  28
TORSDOF 8
ENDMDL
MODEL 9
REMARK VINA RESULT:      -5.3     23.816     25.347
REMARK  8 active torsions:
REMARK  status: ('A' for Active; 'I' for Inactive)
REMARK    1  A    between atoms: C_6  and  C_8 
REMARK    2  A    between atoms: C_11  and  O_12 
REMARK    3  A    between atoms: C_17  and  O_18 
REMARK    4  A    between atoms: O_18  and  C_19 
REMARK    5  A    between atoms: C_22  and  O_23 
REMARK    6  A    between atoms: C_25  and  O_26 
REMARK    7  A    between atoms: C_28  and  O_29 
REMARK    8  A    between atoms: C_33  and  O_34 
ROOT
HETATM    1  O   UNK N   1      44.750  56.422  60.825  0.00  0.00    -0.287 OA
HETATM    2  C   UNK N   1      45.487  55.493  60.549  0.00  0.00     0.190 A 
HETATM    3  C   UNK N   1      46.479  55.617  59.552  0.00  0.00     0.081 A 
HETATM    4  C   UNK N   1      47.291  54.495  59.296  0.00  0.00     0.095 A 
HETATM    5  O   UNK N   1      47.139  53.373  59.987  0.00  0.00    -0.309 OA
HETATM    6  C   UNK N   1      46.211  53.212  60.922  0.00  0.00     0.090 A 
HETATM    7  C   UNK N   1      45.343  54.276  61.226  0.00  0.00     0.094 A 
HETATM    8  C   UNK N   1      48.261  54.534  58.303  0.00  0.00     0.075 A 
HETATM    9  C   UNK N   1      48.465  55.697  57.541  0.00  0.00     0.077 A 
HETATM   10  C   UNK N   1      47.682  56.828  57.803  0.00  0.00     0.074 A 
HETATM   11  C   UNK N   1      46.687  56.802  58.801  0.00  0.00     0.085 A 
ENDROOT
BRANCH   9  12
HETATM   12  O   UNK N   1      49.401  55.750  56.549  0.00  0.00    -0.318 OA
BRANCH  12  13
HETATM   13  C   UNK N   1      50.421  54.819  56.379  0.00  0.00     0.298 C 
HETATM   14  O   UNK N   1      51.701  55.440  56.345  0.00  0.00    -0.351 OA
HETATM   15  C   UNK N   1      51.816  56.351  55.262  0.00  0.00     0.152 C 
HETATM   16  C   UNK N   1      51.707  55.605  53.912  0.00  0.00     0.178 C 
HETATM   17  C   UNK N   1      53.164  57.064  55.392  0.00  0.00     0.042 C 
HETATM   18  C   UNK N   1      50.358  54.852  53.872  0.00  0.00     0.183 C 
HETATM   19  C   UNK N   1      50.213  53.960  55.118  0.00  0.00     0.205 C 
BRANCH  16  20
HETATM   20  O   UNK N   1      51.781  56.526  52.854  0.00  0.00    -0.390 OA
HETATM   21  H   UNK N   1      52.520  57.154  53.068  0.00  0.00     0.210 HD
ENDBRANCH  16  20
BRANCH  18  22
HETATM   22  O   UNK N   1      50.217  54.100  52.692  0.00  0.00    -0.390 OA
HETATM   23  H   UNK N   1      49.518  54.535  52.136  0.00  0.00     0.210 HD
ENDBRANCH  18  22
BRANCH  19  24
HETATM   24  O   UNK N   1      51.183  52.943  55.084  0.00  0.00    -0.388 OA
HETATM   25  H   UNK N   1      51.795  53.101  55.851  0.00  0.00     0.210 HD
ENDBRANCH  19  24
ENDBRANCH  12  13
ENDBRANCH   9  12
BRANCH  11  26
HETATM   26  O   UNK N   1      45.937  57.901  59.029  0.00  0.00    -0.360 OA
HETATM   27  H   UNK N   1      45.313  58.242  58.370  0.00  0.00     0.217 HD
ENDBRANCH  11  26
BRANCH   6  28
HETATM   28  C   UNK N   1      46.138  51.893  61.603  0.00  0.00    -0.002 A 
HETATM   29  C   UNK N   1      46.951  51.662  62.728  0.00  0.00     0.017 A 
HETATM   30  C   UNK N   1      46.915  50.434  63.393  0.00  0.00     0.037 A 
HETATM   31  C   UNK N   1      46.083  49.409  62.927  0.00  0.00     0.065 A 
HETATM   32  C   UNK N   1      45.281  49.624  61.802  0.00  0.00     0.037 A 
HETATM   33  C   UNK N   1      45.298  50.859  61.146  0.00  0.00     0.017 A 
BRANCH  31  34
HETATM   34  O   UNK N   1      46.048  48.215  63.554  0.00  0.00    -0.361 OA
HETATM   35  H   UNK N   1      46.852  47.803  63.903  0.00  0.00     0.217 HD
ENDBRANCH  31  34
ENDBRANCH   6  28
TORSDOF 8
ENDMDL
