MODEL 1
REMARK VINA RESULT:      -7.3      0.000      0.000
REMARK  10 active torsions:
REMARK  status: ('A' for Active; 'I' for Inactive)
REMARK    1  A    between atoms: C_6  and  C_8 
REMARK    2  A    between atoms: C_11  and  O_12 
REMARK    3  A    between atoms: C_17  and  O_18 
REMARK    4  A    between atoms: O_18  and  C_19 
REMARK    5  A    between atoms: C_21  and  C_31 
REMARK    6  A    between atoms: C_22  and  O_23 
REMARK    7  A    between atoms: C_25  and  O_26 
REMARK    8  A    between atoms: C_28  and  O_29 
REMARK    9  A    between atoms: C_31  and  O_32 
REMARK   10  A    between atoms: C_35  and  O_36 
ROOT
HETATM    1  O   UNK N   1      42.194  43.875  46.156  0.00  0.00    -0.287 OA
HETATM    2  C   UNK N   1      41.730  44.576  47.038  0.00  0.00     0.190 A 
HETATM    3  C   UNK N   1      41.108  45.808  46.744  0.00  0.00     0.081 A 
HETATM    4  C   UNK N   1      40.595  46.558  47.822  0.00  0.00     0.095 A 
HETATM    5  O   UNK N   1      40.680  46.103  49.067  0.00  0.00    -0.309 OA
HETATM    6  C   UNK N   1      41.270  44.956  49.386  0.00  0.00     0.090 A 
HETATM    7  C   UNK N   1      41.824  44.157  48.369  0.00  0.00     0.094 A 
HETATM    8  C   UNK N   1      40.002  47.796  47.604  0.00  0.00     0.075 A 
HETATM    9  C   UNK N   1      39.889  48.319  46.303  0.00  0.00     0.077 A 
HETATM   10  C   UNK N   1      40.375  47.572  45.224  0.00  0.00     0.074 A 
HETATM   11  C   UNK N   1      40.983  46.320  45.428  0.00  0.00     0.085 A 
ENDROOT
BRANCH   9  12
HETATM   12  O   UNK N   1      39.320  49.533  46.061  0.00  0.00    -0.318 OA
BRANCH  12  13
HETATM   13  C   UNK N   1      38.751  49.913  44.858  0.00  0.00     0.298 C 
HETATM   14  O   UNK N   1      38.195  48.766  44.238  0.00  0.00    -0.348 OA
HETATM   15  C   UNK N   1      37.459  49.126  43.084  0.00  0.00     0.179 C 
HETATM   16  C   UNK N   1      38.423  49.669  42.005  0.00  0.00     0.180 C 
HETATM   17  C   UNK N   1      39.177  50.883  42.589  0.00  0.00     0.183 C 
HETATM   18  C   UNK N   1      39.829  50.521  43.939  0.00  0.00     0.205 C 
BRANCH  15  19
HETATM   19  C   UNK N   1      36.683  47.891  42.604  0.00  0.00     0.198 C 
BRANCH  19  20
HETATM   20  O   UNK N   1      36.490  46.971  43.645  0.00  0.00    -0.398 OA
HETATM   21  H   UNK N   1      36.929  47.353  44.450  0.00  0.00     0.209 HD
ENDBRANCH  19  20
ENDBRANCH  15  19
BRANCH  16  22
HETATM   22  O   UNK N   1      37.695  50.049  40.865  0.00  0.00    -0.390 OA
HETATM   23  H   UNK N   1      38.256  50.700  40.369  0.00  0.00     0.210 HD
ENDBRANCH  16  22
BRANCH  17  24
HETATM   24  O   UNK N   1      40.134  51.372  41.683  0.00  0.00    -0.390 OA
HETATM   25  H   UNK N   1      40.992  51.462  42.176  0.00  0.00     0.210 HD
ENDBRANCH  17  24
BRANCH  18  26
HETATM   26  O   UNK N   1      40.377  51.682  44.509  0.00  0.00    -0.388 OA
HETATM   27  H   UNK N   1      40.792  51.418  45.370  0.00  0.00     0.210 HD
ENDBRANCH  18  26
ENDBRANCH  12  13
ENDBRANCH   9  12
BRANCH  11  28
HETATM   28  O   UNK N   1      41.446  45.621  44.369  0.00  0.00    -0.360 OA
HETATM   29  H   UNK N   1      42.363  45.317  44.320  0.00  0.00     0.217 HD
ENDBRANCH  11  28
BRANCH   6  30
HETATM   30  C   UNK N   1      41.319  44.577  50.823  0.00  0.00    -0.002 A 
HETATM   31  C   UNK N   1      41.944  45.446  51.737  0.00  0.00     0.017 A 
HETATM   32  C   UNK N   1      42.014  45.121  53.093  0.00  0.00     0.037 A 
HETATM   33  C   UNK N   1      41.482  43.912  53.556  0.00  0.00     0.065 A 
HETATM   34  C   UNK N   1      40.871  43.035  52.653  0.00  0.00     0.037 A 
HETATM   35  C   UNK N   1      40.778  43.365  51.298  0.00  0.00     0.017 A 
BRANCH  33  36
HETATM   36  O   UNK N   1      41.556  43.583  54.860  0.00  0.00    -0.361 OA
HETATM   37  H   UNK N   1      41.181  44.151  55.549  0.00  0.00     0.217 HD
ENDBRANCH  33  36
ENDBRANCH   6  30
TORSDOF 10
ENDMDL
MODEL 2
REMARK VINA RESULT:      -6.6     14.668     16.337
REMARK  10 active torsions:
REMARK  status: ('A' for Active; 'I' for Inactive)
REMARK    1  A    between atoms: C_6  and  C_8 
REMARK    2  A    between atoms: C_11  and  O_12 
REMARK    3  A    between atoms: C_17  and  O_18 
REMARK    4  A    between atoms: O_18  and  C_19 
REMARK    5  A    between atoms: C_21  and  C_31 
REMARK    6  A    between atoms: C_22  and  O_23 
REMARK    7  A    between atoms: C_25  and  O_26 
REMARK    8  A    between atoms: C_28  and  O_29 
REMARK    9  A    between atoms: C_31  and  O_32 
REMARK   10  A    between atoms: C_35  and  O_36 
ROOT
HETATM    1  O   UNK N   1      44.782  56.023  62.246  0.00  0.00    -0.287 OA
HETATM    2  C   UNK N   1      45.439  55.299  61.520  0.00  0.00     0.190 A 
HETATM    3  C   UNK N   1      46.307  55.833  60.543  0.00  0.00     0.081 A 
HETATM    4  C   UNK N   1      47.033  54.926  59.745  0.00  0.00     0.095 A 
HETATM    5  O   UNK N   1      46.916  53.617  59.927  0.00  0.00    -0.309 OA
HETATM    6  C   UNK N   1      46.101  53.075  60.826  0.00  0.00     0.090 A 
HETATM    7  C   UNK N   1      45.326  53.911  61.649  0.00  0.00     0.094 A 
HETATM    8  C   UNK N   1      47.878  55.387  58.741  0.00  0.00     0.075 A 
HETATM    9  C   UNK N   1      48.035  56.766  58.511  0.00  0.00     0.077 A 
HETATM   10  C   UNK N   1      47.335  57.674  59.313  0.00  0.00     0.074 A 
HETATM   11  C   UNK N   1      46.472  57.224  60.329  0.00  0.00     0.085 A 
ENDROOT
BRANCH   9  12
HETATM   12  O   UNK N   1      48.848  57.244  57.529  0.00  0.00    -0.318 OA
BRANCH  12  13
HETATM   13  C   UNK N   1      48.889  56.764  56.232  0.00  0.00     0.298 C 
HETATM   14  O   UNK N   1      50.090  56.031  56.058  0.00  0.00    -0.348 OA
HETATM   15  C   UNK N   1      50.104  55.382  54.800  0.00  0.00     0.179 C 
HETATM   16  C   UNK N   1      50.177  56.438  53.674  0.00  0.00     0.180 C 
HETATM   17  C   UNK N   1      48.958  57.377  53.805  0.00  0.00     0.183 C 
HETATM   18  C   UNK N   1      48.857  57.941  55.237  0.00  0.00     0.205 C 
BRANCH  15  19
HETATM   19  C   UNK N   1      51.299  54.417  54.771  0.00  0.00     0.198 C 
BRANCH  19  20
HETATM   20  O   UNK N   1      51.167  53.471  53.744  0.00  0.00    -0.398 OA
HETATM   21  H   UNK N   1      51.697  53.808  52.974  0.00  0.00     0.209 HD
ENDBRANCH  19  20
ENDBRANCH  15  19
BRANCH  16  22
HETATM   22  O   UNK N   1      50.169  55.800  52.423  0.00  0.00    -0.390 OA
HETATM   23  H   UNK N   1      50.590  54.910  52.550  0.00  0.00     0.210 HD
ENDBRANCH  16  22
BRANCH  17  24
HETATM   24  O   UNK N   1      49.011  58.414  52.859  0.00  0.00    -0.390 OA
HETATM   25  H   UNK N   1      48.137  58.432  52.387  0.00  0.00     0.210 HD
ENDBRANCH  17  24
BRANCH  18  26
HETATM   26  O   UNK N   1      47.660  58.667  55.359  0.00  0.00    -0.388 OA
HETATM   27  H   UNK N   1      47.906  59.597  55.602  0.00  0.00     0.210 HD
ENDBRANCH  18  26
ENDBRANCH  12  13
ENDBRANCH   9  12
BRANCH  11  28
HETATM   28  O   UNK N   1      45.806  58.123  61.086  0.00  0.00    -0.360 OA
HETATM   29  H   UNK N   1      45.388  57.875  61.923  0.00  0.00     0.217 HD
ENDBRANCH  11  28
BRANCH   6  30
HETATM   30  C   UNK N   1      46.046  51.591  60.908  0.00  0.00    -0.002 A 
HETATM   31  C   UNK N   1      47.240  50.856  60.788  0.00  0.00     0.017 A 
HETATM   32  C   UNK N   1      47.227  49.461  60.855  0.00  0.00     0.037 A 
HETATM   33  C   UNK N   1      46.018  48.776  61.021  0.00  0.00     0.065 A 
HETATM   34  C   UNK N   1      44.824  49.497  61.130  0.00  0.00     0.037 A 
HETATM   35  C   UNK N   1      44.833  50.894  61.085  0.00  0.00     0.017 A 
BRANCH  33  36
HETATM   36  O   UNK N   1      45.993  47.430  61.075  0.00  0.00    -0.361 OA
HETATM   37  H   UNK N   1      46.238  46.886  60.312  0.00  0.00     0.217 HD
ENDBRANCH  33  36
ENDBRANCH   6  30
TORSDOF 10
ENDMDL
MODEL 3
REMARK VINA RESULT:      -6.5     13.750     15.962
REMARK  10 active torsions:
REMARK  status: ('A' for Active; 'I' for Inactive)
REMARK    1  A    between atoms: C_6  and  C_8 
REMARK    2  A    between atoms: C_11  and  O_12 
REMARK    3  A    between atoms: C_17  and  O_18 
REMARK    4  A    between atoms: O_18  and  C_19 
REMARK    5  A    between atoms: C_21  and  C_31 
REMARK    6  A    between atoms: C_22  and  O_23 
REMARK    7  A    between atoms: C_25  and  O_26 
REMARK    8  A    between atoms: C_28  and  O_29 
REMARK    9  A    between atoms: C_31  and  O_32 
REMARK   10  A    between atoms: C_35  and  O_36 
ROOT
HETATM    1  O   UNK N   1      31.414  43.277  60.540  0.00  0.00    -0.287 OA
HETATM    2  C   UNK N   1      30.795  43.869  59.674  0.00  0.00     0.190 A 
HETATM    3  C   UNK N   1      30.194  43.178  58.600  0.00  0.00     0.081 A 
HETATM    4  C   UNK N   1      29.494  43.938  57.641  0.00  0.00     0.095 A 
HETATM    5  O   UNK N   1      29.391  45.256  57.762  0.00  0.00    -0.309 OA
HETATM    6  C   UNK N   1      29.954  45.944  58.750  0.00  0.00     0.090 A 
HETATM    7  C   UNK N   1      30.686  45.262  59.738  0.00  0.00     0.094 A 
HETATM    8  C   UNK N   1      28.909  43.322  56.541  0.00  0.00     0.075 A 
HETATM    9  C   UNK N   1      28.992  41.928  56.369  0.00  0.00     0.077 A 
HETATM   10  C   UNK N   1      29.665  41.163  57.328  0.00  0.00     0.074 A 
HETATM   11  C   UNK N   1      30.267  41.771  58.445  0.00  0.00     0.085 A 
ENDROOT
BRANCH   9  12
HETATM   12  O   UNK N   1      28.436  41.300  55.297  0.00  0.00    -0.318 OA
BRANCH  12  13
HETATM   13  C   UNK N   1      28.112  41.916  54.100  0.00  0.00     0.298 C 
HETATM   14  O   UNK N   1      26.827  41.472  53.696  0.00  0.00    -0.348 OA
HETATM   15  C   UNK N   1      26.380  42.194  52.564  0.00  0.00     0.179 C 
HETATM   16  C   UNK N   1      27.265  41.846  51.346  0.00  0.00     0.180 C 
HETATM   17  C   UNK N   1      28.730  42.195  51.690  0.00  0.00     0.183 C 
HETATM   18  C   UNK N   1      29.147  41.540  53.022  0.00  0.00     0.205 C 
BRANCH  15  19
HETATM   19  C   UNK N   1      24.902  41.850  52.327  0.00  0.00     0.198 C 
BRANCH  19  20
HETATM   20  O   UNK N   1      24.283  42.797  51.498  0.00  0.00    -0.398 OA
HETATM   21  H   UNK N   1      24.769  43.653  51.628  0.00  0.00     0.209 HD
ENDBRANCH  19  20
ENDBRANCH  15  19
BRANCH  16  22
HETATM   22  O   UNK N   1      26.840  42.577  50.225  0.00  0.00    -0.390 OA
HETATM   23  H   UNK N   1      27.466  42.363  49.486  0.00  0.00     0.210 HD
ENDBRANCH  16  22
BRANCH  17  24
HETATM   24  O   UNK N   1      29.599  41.822  50.651  0.00  0.00    -0.390 OA
HETATM   25  H   UNK N   1      30.258  42.556  50.535  0.00  0.00     0.210 HD
ENDBRANCH  17  24
BRANCH  18  26
HETATM   26  O   UNK N   1      30.427  41.998  53.376  0.00  0.00    -0.388 OA
HETATM   27  H   UNK N   1      30.925  42.157  52.532  0.00  0.00     0.210 HD
ENDBRANCH  18  26
ENDBRANCH  12  13
ENDBRANCH   9  12
BRANCH  11  28
HETATM   28  O   UNK N   1      30.914  41.009  59.353  0.00  0.00    -0.360 OA
HETATM   29  H   UNK N   1      30.855  41.187  60.303  0.00  0.00     0.217 HD
ENDBRANCH  11  28
BRANCH   6  30
HETATM   30  C   UNK N   1      29.783  47.421  58.753  0.00  0.00    -0.002 A 
HETATM   31  C   UNK N   1      29.351  48.056  59.933  0.00  0.00     0.017 A 
HETATM   32  C   UNK N   1      29.174  49.440  59.972  0.00  0.00     0.037 A 
HETATM   33  C   UNK N   1      29.404  50.212  58.827  0.00  0.00     0.065 A 
HETATM   34  C   UNK N   1      29.821  49.590  57.646  0.00  0.00     0.037 A 
HETATM   35  C   UNK N   1      30.021  48.206  57.606  0.00  0.00     0.017 A 
BRANCH  33  36
HETATM   36  O   UNK N   1      29.224  51.547  58.851  0.00  0.00    -0.361 OA
HETATM   37  H   UNK N   1      29.962  52.157  58.997  0.00  0.00     0.217 HD
ENDBRANCH  33  36
ENDBRANCH   6  30
TORSDOF 10
ENDMDL
MODEL 4
REMARK VINA RESULT:      -6.3     13.759     16.408
REMARK  10 active torsions:
REMARK  status: ('A' for Active; 'I' for Inactive)
REMARK    1  A    between atoms: C_6  and  C_8 
REMARK    2  A    between atoms: C_11  and  O_12 
REMARK    3  A    between atoms: C_17  and  O_18 
REMARK    4  A    between atoms: O_18  and  C_19 
REMARK    5  A    between atoms: C_21  and  C_31 
REMARK    6  A    between atoms: C_22  and  O_23 
REMARK    7  A    between atoms: C_25  and  O_26 
REMARK    8  A    between atoms: C_28  and  O_29 
REMARK    9  A    between atoms: C_31  and  O_32 
REMARK   10  A    between atoms: C_35  and  O_36 
ROOT
HETATM    1  O   UNK N   1      29.739  39.990  58.486  0.00  0.00    -0.287 OA
HETATM    2  C   UNK N   1      29.632  40.923  57.710  0.00  0.00     0.190 A 
HETATM    3  C   UNK N   1      29.895  42.248  58.119  0.00  0.00     0.081 A 
HETATM    4  C   UNK N   1      29.750  43.271  57.159  0.00  0.00     0.095 A 
HETATM    5  O   UNK N   1      29.400  42.986  55.911  0.00  0.00    -0.309 OA
HETATM    6  C   UNK N   1      29.131  41.754  55.491  0.00  0.00     0.090 A 
HETATM    7  C   UNK N   1      29.233  40.679  56.392  0.00  0.00     0.094 A 
HETATM    8  C   UNK N   1      29.960  44.601  57.506  0.00  0.00     0.075 A 
HETATM    9  C   UNK N   1      30.332  44.951  58.816  0.00  0.00     0.077 A 
HETATM   10  C   UNK N   1      30.500  43.941  59.770  0.00  0.00     0.074 A 
HETATM   11  C   UNK N   1      30.287  42.591  59.437  0.00  0.00     0.085 A 
ENDROOT
BRANCH   9  12
HETATM   12  O   UNK N   1      30.535  46.246  59.186  0.00  0.00    -0.318 OA
BRANCH  12  13
HETATM   13  C   UNK N   1      29.813  47.327  58.709  0.00  0.00     0.298 C 
HETATM   14  O   UNK N   1      30.625  48.045  57.795  0.00  0.00    -0.348 OA
HETATM   15  C   UNK N   1      29.880  49.064  57.155  0.00  0.00     0.179 C 
HETATM   16  C   UNK N   1      29.485  50.143  58.190  0.00  0.00     0.180 C 
HETATM   17  C   UNK N   1      28.664  49.468  59.310  0.00  0.00     0.183 C 
HETATM   18  C   UNK N   1      29.418  48.249  59.879  0.00  0.00     0.205 C 
BRANCH  15  19
HETATM   19  C   UNK N   1      30.731  49.638  56.013  0.00  0.00     0.198 C 
BRANCH  19  20
HETATM   20  O   UNK N   1      31.414  50.795  56.416  0.00  0.00    -0.398 OA
HETATM   21  H   UNK N   1      32.195  50.495  56.951  0.00  0.00     0.209 HD
ENDBRANCH  19  20
ENDBRANCH  15  19
BRANCH  16  22
HETATM   22  O   UNK N   1      28.725  51.145  57.565  0.00  0.00    -0.390 OA
HETATM   23  H   UNK N   1      27.802  50.793  57.474  0.00  0.00     0.210 HD
ENDBRANCH  16  22
BRANCH  17  24
HETATM   24  O   UNK N   1      28.346  50.382  60.329  0.00  0.00    -0.390 OA
HETATM   25  H   UNK N   1      27.395  50.645  60.207  0.00  0.00     0.210 HD
ENDBRANCH  17  24
BRANCH  18  26
HETATM   26  O   UNK N   1      28.581  47.576  60.786  0.00  0.00    -0.388 OA
HETATM   27  H   UNK N   1      28.324  48.229  61.487  0.00  0.00     0.210 HD
ENDBRANCH  18  26
ENDBRANCH  12  13
ENDBRANCH   9  12
BRANCH  11  28
HETATM   28  O   UNK N   1      30.453  41.636  60.378  0.00  0.00    -0.360 OA
HETATM   29  H   UNK N   1      30.706  41.853  61.286  0.00  0.00     0.217 HD
ENDBRANCH  11  28
BRANCH   6  30
HETATM   30  C   UNK N   1      28.724  41.577  54.072  0.00  0.00    -0.002 A 
HETATM   31  C   UNK N   1      29.428  42.269  53.068  0.00  0.00     0.017 A 
HETATM   32  C   UNK N   1      29.071  42.132  51.726  0.00  0.00     0.037 A 
HETATM   33  C   UNK N   1      27.990  41.319  51.364  0.00  0.00     0.065 A 
HETATM   34  C   UNK N   1      27.276  40.637  52.355  0.00  0.00     0.037 A 
HETATM   35  C   UNK N   1      27.642  40.753  53.699  0.00  0.00     0.017 A 
BRANCH  33  36
HETATM   36  O   UNK N   1      27.630  41.189  50.072  0.00  0.00    -0.361 OA
HETATM   37  H   UNK N   1      27.972  41.782  49.388  0.00  0.00     0.217 HD
ENDBRANCH  33  36
ENDBRANCH   6  30
TORSDOF 10
ENDMDL
MODEL 5
REMARK VINA RESULT:      -6.2     13.609     15.661
REMARK  10 active torsions:
REMARK  status: ('A' for Active; 'I' for Inactive)
REMARK    1  A    between atoms: C_6  and  C_8 
REMARK    2  A    between atoms: C_11  and  O_12 
REMARK    3  A    between atoms: C_17  and  O_18 
REMARK    4  A    between atoms: O_18  and  C_19 
REMARK    5  A    between atoms: C_21  and  C_31 
REMARK    6  A    between atoms: C_22  and  O_23 
REMARK    7  A    between atoms: C_25  and  O_26 
REMARK    8  A    between atoms: C_28  and  O_29 
REMARK    9  A    between atoms: C_31  and  O_32 
REMARK   10  A    between atoms: C_35  and  O_36 
ROOT
HETATM    1  O   UNK N   1      32.816  42.898  56.807  0.00  0.00    -0.287 OA
HETATM    2  C   UNK N   1      31.626  43.062  57.011  0.00  0.00     0.190 A 
HETATM    3  C   UNK N   1      30.658  42.643  56.073  0.00  0.00     0.081 A 
HETATM    4  C   UNK N   1      29.302  42.868  56.386  0.00  0.00     0.095 A 
HETATM    5  O   UNK N   1      28.955  43.435  57.535  0.00  0.00    -0.309 OA
HETATM    6  C   UNK N   1      29.836  43.854  58.437  0.00  0.00     0.090 A 
HETATM    7  C   UNK N   1      31.211  43.685  58.192  0.00  0.00     0.094 A 
HETATM    8  C   UNK N   1      28.300  42.512  55.490  0.00  0.00     0.075 A 
HETATM    9  C   UNK N   1      28.619  41.909  54.260  0.00  0.00     0.077 A 
HETATM   10  C   UNK N   1      29.961  41.661  53.950  0.00  0.00     0.074 A 
HETATM   11  C   UNK N   1      30.986  42.020  54.843  0.00  0.00     0.085 A 
ENDROOT
BRANCH   9  12
HETATM   12  O   UNK N   1      27.659  41.558  53.359  0.00  0.00    -0.318 OA
BRANCH  12  13
HETATM   13  C   UNK N   1      27.101  42.414  52.425  0.00  0.00     0.298 C 
HETATM   14  O   UNK N   1      25.864  42.889  52.931  0.00  0.00    -0.348 OA
HETATM   15  C   UNK N   1      25.331  43.893  52.088  0.00  0.00     0.179 C 
HETATM   16  C   UNK N   1      24.933  43.270  50.730  0.00  0.00     0.180 C 
HETATM   17  C   UNK N   1      26.187  42.622  50.104  0.00  0.00     0.183 C 
HETATM   18  C   UNK N   1      26.859  41.659  51.104  0.00  0.00     0.205 C 
BRANCH  15  19
HETATM   19  C   UNK N   1      24.135  44.537  52.805  0.00  0.00     0.198 C 
BRANCH  19  20
HETATM   20  O   UNK N   1      23.975  45.879  52.427  0.00  0.00    -0.398 OA
HETATM   21  H   UNK N   1      23.512  45.876  51.548  0.00  0.00     0.209 HD
ENDBRANCH  19  20
ENDBRANCH  15  19
BRANCH  16  22
HETATM   22  O   UNK N   1      24.423  44.267  49.881  0.00  0.00    -0.390 OA
HETATM   23  H   UNK N   1      23.836  44.844  50.435  0.00  0.00     0.210 HD
ENDBRANCH  16  22
BRANCH  17  24
HETATM   24  O   UNK N   1      25.873  41.962  48.903  0.00  0.00    -0.390 OA
HETATM   25  H   UNK N   1      24.988  41.527  49.025  0.00  0.00     0.210 HD
ENDBRANCH  17  24
BRANCH  18  26
HETATM   26  O   UNK N   1      28.071  41.205  50.557  0.00  0.00    -0.388 OA
HETATM   27  H   UNK N   1      28.707  41.092  51.310  0.00  0.00     0.210 HD
ENDBRANCH  18  26
ENDBRANCH  12  13
ENDBRANCH   9  12
BRANCH  11  28
HETATM   28  O   UNK N   1      32.274  41.773  54.518  0.00  0.00    -0.360 OA
HETATM   29  H   UNK N   1      33.007  42.244  54.939  0.00  0.00     0.217 HD
ENDBRANCH  11  28
BRANCH   6  30
HETATM   30  C   UNK N   1      29.314  44.497  59.672  0.00  0.00    -0.002 A 
HETATM   31  C   UNK N   1      27.955  44.335  60.005  0.00  0.00     0.017 A 
HETATM   32  C   UNK N   1      27.428  44.927  61.153  0.00  0.00     0.037 A 
HETATM   33  C   UNK N   1      28.243  45.711  61.978  0.00  0.00     0.065 A 
HETATM   34  C   UNK N   1      29.591  45.889  61.651  0.00  0.00     0.037 A 
HETATM   35  C   UNK N   1      30.130  45.280  60.513  0.00  0.00     0.017 A 
BRANCH  33  36
HETATM   36  O   UNK N   1      27.741  46.298  63.082  0.00  0.00    -0.361 OA
HETATM   37  H   UNK N   1      27.856  47.244  63.252  0.00  0.00     0.217 HD
ENDBRANCH  33  36
ENDBRANCH   6  30
TORSDOF 10
ENDMDL
MODEL 6
REMARK VINA RESULT:      -6.2      1.124      2.526
REMARK  10 active torsions:
REMARK  status: ('A' for Active; 'I' for Inactive)
REMARK    1  A    between atoms: C_6  and  C_8 
REMARK    2  A    between atoms: C_11  and  O_12 
REMARK    3  A    between atoms: C_17  and  O_18 
REMARK    4  A    between atoms: O_18  and  C_19 
REMARK    5  A    between atoms: C_21  and  C_31 
REMARK    6  A    between atoms: C_22  and  O_23 
REMARK    7  A    between atoms: C_25  and  O_26 
REMARK    8  A    between atoms: C_28  and  O_29 
REMARK    9  A    between atoms: C_31  and  O_32 
REMARK   10  A    between atoms: C_35  and  O_36 
ROOT
HETATM    1  O   UNK N   1      42.578  42.827  46.725  0.00  0.00    -0.287 OA
HETATM    2  C   UNK N   1      41.982  43.625  47.427  0.00  0.00     0.190 A 
HETATM    3  C   UNK N   1      41.466  44.826  46.895  0.00  0.00     0.081 A 
HETATM    4  C   UNK N   1      40.787  45.694  47.774  0.00  0.00     0.095 A 
HETATM    5  O   UNK N   1      40.625  45.375  49.052  0.00  0.00    -0.309 OA
HETATM    6  C   UNK N   1      41.107  44.262  49.594  0.00  0.00     0.090 A 
HETATM    7  C   UNK N   1      41.814  43.351  48.788  0.00  0.00     0.094 A 
HETATM    8  C   UNK N   1      40.285  46.909  47.321  0.00  0.00     0.075 A 
HETATM    9  C   UNK N   1      40.433  47.290  45.975  0.00  0.00     0.077 A 
HETATM   10  C   UNK N   1      41.086  46.425  45.090  0.00  0.00     0.074 A 
HETATM   11  C   UNK N   1      41.604  45.195  45.533  0.00  0.00     0.085 A 
ENDROOT
BRANCH   9  12
HETATM   12  O   UNK N   1      39.959  48.478  45.506  0.00  0.00    -0.318 OA
BRANCH  12  13
HETATM   13  C   UNK N   1      39.465  48.683  44.229  0.00  0.00     0.298 C 
HETATM   14  O   UNK N   1      39.728  50.025  43.853  0.00  0.00    -0.348 OA
HETATM   15  C   UNK N   1      39.390  50.240  42.496  0.00  0.00     0.179 C 
HETATM   16  C   UNK N   1      37.858  50.126  42.321  0.00  0.00     0.180 C 
HETATM   17  C   UNK N   1      37.415  48.724  42.792  0.00  0.00     0.183 C 
HETATM   18  C   UNK N   1      37.944  48.434  44.212  0.00  0.00     0.205 C 
BRANCH  15  19
HETATM   19  C   UNK N   1      39.921  51.620  42.081  0.00  0.00     0.198 C 
BRANCH  19  20
HETATM   20  O   UNK N   1      40.128  52.445  43.197  0.00  0.00    -0.398 OA
HETATM   21  H   UNK N   1      39.339  53.043  43.263  0.00  0.00     0.209 HD
ENDBRANCH  19  20
ENDBRANCH  15  19
BRANCH  16  22
HETATM   22  O   UNK N   1      37.518  50.317  40.972  0.00  0.00    -0.390 OA
HETATM   23  H   UNK N   1      37.843  49.520  40.477  0.00  0.00     0.210 HD
ENDBRANCH  16  22
BRANCH  17  24
HETATM   24  O   UNK N   1      36.018  48.586  42.738  0.00  0.00    -0.390 OA
HETATM   25  H   UNK N   1      35.804  47.638  42.943  0.00  0.00     0.210 HD
ENDBRANCH  17  24
BRANCH  18  26
HETATM   26  O   UNK N   1      37.651  47.101  44.546  0.00  0.00    -0.388 OA
HETATM   27  H   UNK N   1      38.517  46.626  44.640  0.00  0.00     0.210 HD
ENDBRANCH  18  26
ENDBRANCH  12  13
ENDBRANCH   9  12
BRANCH  11  28
HETATM   28  O   UNK N   1      42.232  44.380  44.659  0.00  0.00    -0.360 OA
HETATM   29  H   UNK N   1      42.081  44.441  43.704  0.00  0.00     0.217 HD
ENDBRANCH  11  28
BRANCH   6  30
HETATM   30  C   UNK N   1      40.876  44.039  51.046  0.00  0.00    -0.002 A 
HETATM   31  C   UNK N   1      39.899  43.109  51.447  0.00  0.00     0.017 A 
HETATM   32  C   UNK N   1      39.651  42.876  52.801  0.00  0.00     0.037 A 
HETATM   33  C   UNK N   1      40.359  43.586  53.778  0.00  0.00     0.065 A 
HETATM   34  C   UNK N   1      41.324  44.521  53.390  0.00  0.00     0.037 A 
HETATM   35  C   UNK N   1      41.592  44.743  52.036  0.00  0.00     0.017 A 
BRANCH  33  36
HETATM   36  O   UNK N   1      40.119  43.378  55.087  0.00  0.00    -0.361 OA
HETATM   37  H   UNK N   1      40.815  43.474  55.753  0.00  0.00     0.217 HD
ENDBRANCH  33  36
ENDBRANCH   6  30
TORSDOF 10
ENDMDL
MODEL 7
REMARK VINA RESULT:      -6.1     14.838     17.976
REMARK  10 active torsions:
REMARK  status: ('A' for Active; 'I' for Inactive)
REMARK    1  A    between atoms: C_6  and  C_8 
REMARK    2  A    between atoms: C_11  and  O_12 
REMARK    3  A    between atoms: C_17  and  O_18 
REMARK    4  A    between atoms: O_18  and  C_19 
REMARK    5  A    between atoms: C_21  and  C_31 
REMARK    6  A    between atoms: C_22  and  O_23 
REMARK    7  A    between atoms: C_25  and  O_26 
REMARK    8  A    between atoms: C_28  and  O_29 
REMARK    9  A    between atoms: C_31  and  O_32 
REMARK   10  A    between atoms: C_35  and  O_36 
ROOT
HETATM    1  O   UNK N   1      45.722  59.265  58.612  0.00  0.00    -0.287 OA
HETATM    2  C   UNK N   1      46.303  58.220  58.378  0.00  0.00     0.190 A 
HETATM    3  C   UNK N   1      46.183  57.107  59.237  0.00  0.00     0.081 A 
HETATM    4  C   UNK N   1      46.886  55.934  58.894  0.00  0.00     0.095 A 
HETATM    5  O   UNK N   1      47.616  55.880  57.786  0.00  0.00    -0.309 OA
HETATM    6  C   UNK N   1      47.765  56.910  56.960  0.00  0.00     0.090 A 
HETATM    7  C   UNK N   1      47.112  58.123  57.242  0.00  0.00     0.094 A 
HETATM    8  C   UNK N   1      46.838  54.814  59.716  0.00  0.00     0.075 A 
HETATM    9  C   UNK N   1      46.077  54.823  60.899  0.00  0.00     0.077 A 
HETATM   10  C   UNK N   1      45.358  55.975  61.237  0.00  0.00     0.074 A 
HETATM   11  C   UNK N   1      45.400  57.119  60.419  0.00  0.00     0.085 A 
ENDROOT
BRANCH   9  12
HETATM   12  O   UNK N   1      46.019  53.744  61.727  0.00  0.00    -0.318 OA
BRANCH  12  13
HETATM   13  C   UNK N   1      45.949  52.427  61.305  0.00  0.00     0.298 C 
HETATM   14  O   UNK N   1      44.692  51.896  61.692  0.00  0.00    -0.348 OA
HETATM   15  C   UNK N   1      44.504  50.605  61.143  0.00  0.00     0.179 C 
HETATM   16  C   UNK N   1      45.508  49.619  61.782  0.00  0.00     0.180 C 
HETATM   17  C   UNK N   1      46.938  50.137  61.516  0.00  0.00     0.183 C 
HETATM   18  C   UNK N   1      47.077  51.607  61.961  0.00  0.00     0.205 C 
BRANCH  15  19
HETATM   19  C   UNK N   1      43.046  50.188  61.385  0.00  0.00     0.198 C 
BRANCH  19  20
HETATM   20  O   UNK N   1      42.305  50.201  60.193  0.00  0.00    -0.398 OA
HETATM   21  H   UNK N   1      41.754  51.027  60.207  0.00  0.00     0.209 HD
ENDBRANCH  19  20
ENDBRANCH  15  19
BRANCH  16  22
HETATM   22  O   UNK N   1      45.340  48.341  61.225  0.00  0.00    -0.390 OA
HETATM   23  H   UNK N   1      46.236  47.915  61.206  0.00  0.00     0.210 HD
ENDBRANCH  16  22
BRANCH  17  24
HETATM   24  O   UNK N   1      47.898  49.327  62.146  0.00  0.00    -0.390 OA
HETATM   25  H   UNK N   1      47.798  49.455  63.127  0.00  0.00     0.210 HD
ENDBRANCH  17  24
BRANCH  18  26
HETATM   26  O   UNK N   1      48.338  52.087  61.569  0.00  0.00    -0.388 OA
HETATM   27  H   UNK N   1      48.370  53.051  61.802  0.00  0.00     0.210 HD
ENDBRANCH  18  26
ENDBRANCH  12  13
ENDBRANCH   9  12
BRANCH  11  28
HETATM   28  O   UNK N   1      44.699  58.218  60.770  0.00  0.00    -0.360 OA
HETATM   29  H   UNK N   1      44.299  58.310  61.647  0.00  0.00     0.217 HD
ENDBRANCH  11  28
BRANCH   6  30
HETATM   30  C   UNK N   1      48.634  56.724  55.768  0.00  0.00    -0.002 A 
HETATM   31  C   UNK N   1      49.583  55.684  55.770  0.00  0.00     0.017 A 
HETATM   32  C   UNK N   1      50.419  55.480  54.671  0.00  0.00     0.037 A 
HETATM   33  C   UNK N   1      50.338  56.328  53.559  0.00  0.00     0.065 A 
HETATM   34  C   UNK N   1      49.408  57.371  53.552  0.00  0.00     0.037 A 
HETATM   35  C   UNK N   1      48.552  57.566  54.641  0.00  0.00     0.017 A 
BRANCH  33  36
HETATM   36  O   UNK N   1      51.150  56.148  52.499  0.00  0.00    -0.361 OA
HETATM   37  H   UNK N   1      52.044  56.518  52.475  0.00  0.00     0.217 HD
ENDBRANCH  33  36
ENDBRANCH   6  30
TORSDOF 10
ENDMDL
MODEL 8
REMARK VINA RESULT:      -6.0     15.119     17.553
REMARK  10 active torsions:
REMARK  status: ('A' for Active; 'I' for Inactive)
REMARK    1  A    between atoms: C_6  and  C_8 
REMARK    2  A    between atoms: C_11  and  O_12 
REMARK    3  A    between atoms: C_17  and  O_18 
REMARK    4  A    between atoms: O_18  and  C_19 
REMARK    5  A    between atoms: C_21  and  C_31 
REMARK    6  A    between atoms: C_22  and  O_23 
REMARK    7  A    between atoms: C_25  and  O_26 
REMARK    8  A    between atoms: C_28  and  O_29 
REMARK    9  A    between atoms: C_31  and  O_32 
REMARK   10  A    between atoms: C_35  and  O_36 
ROOT
HETATM    1  O   UNK N   1      46.751  57.414  57.258  0.00  0.00    -0.287 OA
HETATM    2  C   UNK N   1      47.427  56.426  57.483  0.00  0.00     0.190 A 
HETATM    3  C   UNK N   1      47.215  55.639  58.635  0.00  0.00     0.081 A 
HETATM    4  C   UNK N   1      48.039  54.510  58.820  0.00  0.00     0.095 A 
HETATM    5  O   UNK N   1      48.966  54.193  57.925  0.00  0.00    -0.309 OA
HETATM    6  C   UNK N   1      49.206  54.915  56.835  0.00  0.00     0.090 A 
HETATM    7  C   UNK N   1      48.440  56.068  56.587  0.00  0.00     0.094 A 
HETATM    8  C   UNK N   1      47.904  53.714  59.951  0.00  0.00     0.075 A 
HETATM    9  C   UNK N   1      46.936  54.010  60.928  0.00  0.00     0.077 A 
HETATM   10  C   UNK N   1      46.098  55.115  60.742  0.00  0.00     0.074 A 
HETATM   11  C   UNK N   1      46.224  55.935  59.605  0.00  0.00     0.085 A 
ENDROOT
BRANCH   9  12
HETATM   12  O   UNK N   1      46.788  53.252  62.049  0.00  0.00    -0.318 OA
BRANCH  12  13
HETATM   13  C   UNK N   1      46.563  51.886  62.057  0.00  0.00     0.298 C 
HETATM   14  O   UNK N   1      47.583  51.256  61.300  0.00  0.00    -0.348 OA
HETATM   15  C   UNK N   1      47.492  49.848  61.411  0.00  0.00     0.179 C 
HETATM   16  C   UNK N   1      46.197  49.357  60.724  0.00  0.00     0.180 C 
HETATM   17  C   UNK N   1      44.993  50.051  61.397  0.00  0.00     0.183 C 
HETATM   18  C   UNK N   1      45.191  51.580  61.425  0.00  0.00     0.205 C 
BRANCH  15  19
HETATM   19  C   UNK N   1      48.752  49.234  60.784  0.00  0.00     0.198 C 
BRANCH  19  20
HETATM   20  O   UNK N   1      48.455  48.569  59.585  0.00  0.00    -0.398 OA
HETATM   21  H   UNK N   1      47.717  47.935  59.784  0.00  0.00     0.209 HD
ENDBRANCH  19  20
ENDBRANCH  15  19
BRANCH  16  22
HETATM   22  O   UNK N   1      46.091  47.962  60.851  0.00  0.00    -0.390 OA
HETATM   23  H   UNK N   1      46.924  47.649  61.289  0.00  0.00     0.210 HD
ENDBRANCH  16  22
BRANCH  17  24
HETATM   24  O   UNK N   1      43.788  49.711  60.760  0.00  0.00    -0.390 OA
HETATM   25  H   UNK N   1      43.190  49.311  61.446  0.00  0.00     0.210 HD
ENDBRANCH  17  24
BRANCH  18  26
HETATM   26  O   UNK N   1      44.154  52.162  62.173  0.00  0.00    -0.388 OA
HETATM   27  H   UNK N   1      44.208  51.788  63.090  0.00  0.00     0.210 HD
ENDBRANCH  18  26
ENDBRANCH  12  13
ENDBRANCH   9  12
BRANCH  11  28
HETATM   28  O   UNK N   1      45.405  56.997  59.453  0.00  0.00    -0.360 OA
HETATM   29  H   UNK N   1      44.899  57.363  60.193  0.00  0.00     0.217 HD
ENDBRANCH  11  28
BRANCH   6  30
HETATM   30  C   UNK N   1      50.293  54.462  55.927  0.00  0.00    -0.002 A 
HETATM   31  C   UNK N   1      50.275  54.875  54.581  0.00  0.00     0.017 A 
HETATM   32  C   UNK N   1      51.275  54.467  53.698  0.00  0.00     0.037 A 
HETATM   33  C   UNK N   1      52.299  53.619  54.137  0.00  0.00     0.065 A 
HETATM   34  C   UNK N   1      52.320  53.193  55.469  0.00  0.00     0.037 A 
HETATM   35  C   UNK N   1      51.332  53.617  56.364  0.00  0.00     0.017 A 
BRANCH  33  36
HETATM   36  O   UNK N   1      53.263  53.209  53.290  0.00  0.00    -0.361 OA
HETATM   37  H   UNK N   1      54.131  53.635  53.263  0.00  0.00     0.217 HD
ENDBRANCH  33  36
ENDBRANCH   6  30
TORSDOF 10
ENDMDL
MODEL 9
REMARK VINA RESULT:      -6.0     13.549     16.488
REMARK  10 active torsions:
REMARK  status: ('A' for Active; 'I' for Inactive)
REMARK    1  A    between atoms: C_6  and  C_8 
REMARK    2  A    between atoms: C_11  and  O_12 
REMARK    3  A    between atoms: C_17  and  O_18 
REMARK    4  A    between atoms: O_18  and  C_19 
REMARK    5  A    between atoms: C_21  and  C_31 
REMARK    6  A    between atoms: C_22  and  O_23 
REMARK    7  A    between atoms: C_25  and  O_26 
REMARK    8  A    between atoms: C_28  and  O_29 
REMARK    9  A    between atoms: C_31  and  O_32 
REMARK   10  A    between atoms: C_35  and  O_36 
ROOT
HETATM    1  O   UNK N   1      31.448  42.902  59.819  0.00  0.00    -0.287 OA
HETATM    2  C   UNK N   1      30.624  43.541  59.190  0.00  0.00     0.190 A 
HETATM    3  C   UNK N   1      29.664  42.899  58.377  0.00  0.00     0.081 A 
HETATM    4  C   UNK N   1      28.744  43.711  57.683  0.00  0.00     0.095 A 
HETATM    5  O   UNK N   1      28.772  45.032  57.812  0.00  0.00    -0.309 OA
HETATM    6  C   UNK N   1      29.667  45.674  58.556  0.00  0.00     0.090 A 
HETATM    7  C   UNK N   1      30.633  44.937  59.265  0.00  0.00     0.094 A 
HETATM    8  C   UNK N   1      27.796  43.144  56.839  0.00  0.00     0.075 A 
HETATM    9  C   UNK N   1      27.728  41.749  56.670  0.00  0.00     0.077 A 
HETATM   10  C   UNK N   1      28.623  40.934  57.372  0.00  0.00     0.074 A 
HETATM   11  C   UNK N   1      29.591  41.492  58.226  0.00  0.00     0.085 A 
ENDROOT
BRANCH   9  12
HETATM   12  O   UNK N   1      26.816  41.167  55.843  0.00  0.00    -0.318 OA
BRANCH  12  13
HETATM   13  C   UNK N   1      27.040  40.859  54.512  0.00  0.00     0.298 C 
HETATM   14  O   UNK N   1      27.987  41.775  53.989  0.00  0.00    -0.348 OA
HETATM   15  C   UNK N   1      28.373  41.404  52.679  0.00  0.00     0.179 C 
HETATM   16  C   UNK N   1      27.170  41.564  51.721  0.00  0.00     0.180 C 
HETATM   17  C   UNK N   1      26.014  40.679  52.235  0.00  0.00     0.183 C 
HETATM   18  C   UNK N   1      25.722  40.974  53.720  0.00  0.00     0.205 C 
BRANCH  15  19
HETATM   19  C   UNK N   1      29.567  42.277  52.264  0.00  0.00     0.198 C 
BRANCH  19  20
HETATM   20  O   UNK N   1      29.173  43.300  51.390  0.00  0.00    -0.398 OA
HETATM   21  H   UNK N   1      29.908  43.415  50.732  0.00  0.00     0.209 HD
ENDBRANCH  19  20
ENDBRANCH  15  19
BRANCH  16  22
HETATM   22  O   UNK N   1      27.542  41.176  50.423  0.00  0.00    -0.390 OA
HETATM   23  H   UNK N   1      28.533  41.162  50.399  0.00  0.00     0.210 HD
ENDBRANCH  16  22
BRANCH  17  24
HETATM   24  O   UNK N   1      24.859  40.846  51.453  0.00  0.00    -0.390 OA
HETATM   25  H   UNK N   1      24.838  40.105  50.791  0.00  0.00     0.210 HD
ENDBRANCH  17  24
BRANCH  18  26
HETATM   26  O   UNK N   1      24.773  40.052  54.192  0.00  0.00    -0.388 OA
HETATM   27  H   UNK N   1      24.903  39.973  55.172  0.00  0.00     0.210 HD
ENDBRANCH  18  26
ENDBRANCH  12  13
ENDBRANCH   9  12
BRANCH  11  28
HETATM   28  O   UNK N   1      30.445  40.682  58.889  0.00  0.00    -0.360 OA
HETATM   29  H   UNK N   1      31.337  40.500  58.560  0.00  0.00     0.217 HD
ENDBRANCH  11  28
BRANCH   6  30
HETATM   30  C   UNK N   1      29.603  47.159  58.592  0.00  0.00    -0.002 A 
HETATM   31  C   UNK N   1      29.978  47.887  57.447  0.00  0.00     0.017 A 
HETATM   32  C   UNK N   1      29.936  49.282  57.445  0.00  0.00     0.037 A 
HETATM   33  C   UNK N   1      29.540  49.976  58.595  0.00  0.00     0.065 A 
HETATM   34  C   UNK N   1      29.177  49.262  59.742  0.00  0.00     0.037 A 
HETATM   35  C   UNK N   1      29.197  47.864  59.743  0.00  0.00     0.017 A 
BRANCH  33  36
HETATM   36  O   UNK N   1      29.508  51.323  58.608  0.00  0.00    -0.361 OA
HETATM   37  H   UNK N   1      29.216  51.816  59.388  0.00  0.00     0.217 HD
ENDBRANCH  33  36
ENDBRANCH   6  30
TORSDOF 10
ENDMDL
