MODEL 1
REMARK VINA RESULT:      -7.0      0.000      0.000
REMARK  11 active torsions:
REMARK  status: ('A' for Active; 'I' for Inactive)
REMARK    1  A    between atoms: C_6  and  C_8 
REMARK    2  A    between atoms: C_11  and  O_12 
REMARK    3  A    between atoms: C_17  and  O_18 
REMARK    4  A    between atoms: O_18  and  C_19 
REMARK    5  A    between atoms: C_21  and  C_31 
REMARK    6  A    between atoms: C_22  and  O_23 
REMARK    7  A    between atoms: C_25  and  O_26 
REMARK    8  A    between atoms: C_28  and  O_29 
REMARK    9  A    between atoms: C_31  and  O_32 
REMARK   10  A    between atoms: O_32  and  C_33 
REMARK   11  A    between atoms: C_37  and  O_38 
ROOT
HETATM    1  O   UNK N   1      42.013  43.753  46.102  0.00  0.00    -0.287 OA
HETATM    2  C   UNK N   1      41.628  44.484  46.996  0.00  0.00     0.190 A 
HETATM    3  C   UNK N   1      41.087  45.758  46.719  0.00  0.00     0.081 A 
HETATM    4  C   UNK N   1      40.668  46.545  47.812  0.00  0.00     0.095 A 
HETATM    5  O   UNK N   1      40.800  46.103  49.055  0.00  0.00    -0.309 OA
HETATM    6  C   UNK N   1      41.288  44.905  49.357  0.00  0.00     0.090 A 
HETATM    7  C   UNK N   1      41.714  44.051  48.323  0.00  0.00     0.094 A 
HETATM    8  C   UNK N   1      40.093  47.794  47.606  0.00  0.00     0.075 A 
HETATM    9  C   UNK N   1      39.917  48.296  46.305  0.00  0.00     0.077 A 
HETATM   10  C   UNK N   1      40.355  47.536  45.215  0.00  0.00     0.074 A 
HETATM   11  C   UNK N   1      40.940  46.271  45.405  0.00  0.00     0.085 A 
ENDROOT
BRANCH   9  12
HETATM   12  O   UNK N   1      39.323  49.500  46.074  0.00  0.00    -0.318 OA
BRANCH  12  13
HETATM   13  C   UNK N   1      38.742  49.880  44.876  0.00  0.00     0.298 C 
HETATM   14  O   UNK N   1      38.090  48.756  44.302  0.00  0.00    -0.348 OA
HETATM   15  C   UNK N   1      37.344  49.142  43.160  0.00  0.00     0.180 C 
HETATM   16  C   UNK N   1      38.311  49.589  42.040  0.00  0.00     0.180 C 
HETATM   17  C   UNK N   1      39.168  50.758  42.572  0.00  0.00     0.183 C 
HETATM   18  C   UNK N   1      39.833  50.385  43.911  0.00  0.00     0.205 C 
BRANCH  15  19
HETATM   19  C   UNK N   1      36.483  47.953  42.718  0.00  0.00     0.213 C 
BRANCH  19  20
HETATM   20  O   UNK N   1      35.298  47.952  43.431  0.00  0.00    -0.319 OA
BRANCH  20  21
HETATM   21  C   UNK N   1      34.286  48.829  43.203  0.00  0.00     0.254 C 
HETATM   22  O   UNK N   1      33.214  48.445  42.758  0.00  0.00    -0.266 OA
HETATM   23  C   UNK N   1      34.492  50.280  43.504  0.00  0.00     0.126 C 
ENDBRANCH  20  21
ENDBRANCH  19  20
ENDBRANCH  15  19
BRANCH  16  24
HETATM   24  O   UNK N   1      37.578  49.996  40.913  0.00  0.00    -0.390 OA
HETATM   25  H   UNK N   1      36.680  50.271  41.236  0.00  0.00     0.210 HD
ENDBRANCH  16  24
BRANCH  17  26
HETATM   26  O   UNK N   1      40.131  51.157  41.628  0.00  0.00    -0.390 OA
HETATM   27  H   UNK N   1      40.919  50.560  41.736  0.00  0.00     0.210 HD
ENDBRANCH  17  26
BRANCH  18  28
HETATM   28  O   UNK N   1      40.476  51.519  44.435  0.00  0.00    -0.388 OA
HETATM   29  H   UNK N   1      39.792  52.232  44.519  0.00  0.00     0.210 HD
ENDBRANCH  18  28
ENDBRANCH  12  13
ENDBRANCH   9  12
BRANCH  11  30
HETATM   30  O   UNK N   1      41.347  45.554  44.335  0.00  0.00    -0.360 OA
HETATM   31  H   UNK N   1      41.841  44.727  44.431  0.00  0.00     0.217 HD
ENDBRANCH  11  30
BRANCH   6  32
HETATM   32  C   UNK N   1      41.358  44.527  50.792  0.00  0.00    -0.002 A 
HETATM   33  C   UNK N   1      41.971  45.412  51.700  0.00  0.00     0.017 A 
HETATM   34  C   UNK N   1      42.057  45.093  53.055  0.00  0.00     0.037 A 
HETATM   35  C   UNK N   1      41.511  43.895  53.532  0.00  0.00     0.065 A 
HETATM   36  C   UNK N   1      40.886  43.016  52.643  0.00  0.00     0.037 A 
HETATM   37  C   UNK N   1      40.816  43.321  51.279  0.00  0.00     0.017 A 
BRANCH  35  38
HETATM   38  O   UNK N   1      41.583  43.582  54.842  0.00  0.00    -0.361 OA
HETATM   39  H   UNK N   1      42.143  42.861  55.162  0.00  0.00     0.217 HD
ENDBRANCH  35  38
ENDBRANCH   6  32
TORSDOF 11
ENDMDL
MODEL 2
REMARK VINA RESULT:      -6.9     13.094     16.234
REMARK  11 active torsions:
REMARK  status: ('A' for Active; 'I' for Inactive)
REMARK    1  A    between atoms: C_6  and  C_8 
REMARK    2  A    between atoms: C_11  and  O_12 
REMARK    3  A    between atoms: C_17  and  O_18 
REMARK    4  A    between atoms: O_18  and  C_19 
REMARK    5  A    between atoms: C_21  and  C_31 
REMARK    6  A    between atoms: C_22  and  O_23 
REMARK    7  A    between atoms: C_25  and  O_26 
REMARK    8  A    between atoms: C_28  and  O_29 
REMARK    9  A    between atoms: C_31  and  O_32 
REMARK   10  A    between atoms: O_32  and  C_33 
REMARK   11  A    between atoms: C_37  and  O_38 
ROOT
HETATM    1  O   UNK N   1      32.686  42.570  55.860  0.00  0.00    -0.287 OA
HETATM    2  C   UNK N   1      31.475  42.677  55.934  0.00  0.00     0.190 A 
HETATM    3  C   UNK N   1      30.866  43.420  56.969  0.00  0.00     0.081 A 
HETATM    4  C   UNK N   1      29.458  43.491  56.985  0.00  0.00     0.095 A 
HETATM    5  O   UNK N   1      28.737  42.863  56.067  0.00  0.00    -0.309 OA
HETATM    6  C   UNK N   1      29.271  42.168  55.068  0.00  0.00     0.090 A 
HETATM    7  C   UNK N   1      30.671  42.061  54.970  0.00  0.00     0.094 A 
HETATM    8  C   UNK N   1      28.798  44.237  57.955  0.00  0.00     0.075 A 
HETATM    9  C   UNK N   1      29.521  44.933  58.938  0.00  0.00     0.077 A 
HETATM   10  C   UNK N   1      30.917  44.846  58.949  0.00  0.00     0.074 A 
HETATM   11  C   UNK N   1      31.602  44.096  57.975  0.00  0.00     0.085 A 
ENDROOT
BRANCH   9  12
HETATM   12  O   UNK N   1      28.901  45.700  59.877  0.00  0.00    -0.318 OA
BRANCH  12  13
HETATM   13  C   UNK N   1      28.676  47.062  59.767  0.00  0.00     0.298 C 
HETATM   14  O   UNK N   1      29.092  47.496  58.479  0.00  0.00    -0.348 OA
HETATM   15  C   UNK N   1      28.727  48.849  58.267  0.00  0.00     0.180 C 
HETATM   16  C   UNK N   1      29.540  49.757  59.217  0.00  0.00     0.180 C 
HETATM   17  C   UNK N   1      29.257  49.321  60.671  0.00  0.00     0.183 C 
HETATM   18  C   UNK N   1      29.487  47.808  60.845  0.00  0.00     0.205 C 
BRANCH  15  19
HETATM   19  C   UNK N   1      28.987  49.197  56.796  0.00  0.00     0.213 C 
BRANCH  19  20
HETATM   20  O   UNK N   1      30.347  49.343  56.592  0.00  0.00    -0.319 OA
BRANCH  20  21
HETATM   21  C   UNK N   1      30.882  50.255  55.741  0.00  0.00     0.254 C 
HETATM   22  O   UNK N   1      32.048  50.607  55.853  0.00  0.00    -0.266 OA
HETATM   23  C   UNK N   1      30.031  50.832  54.655  0.00  0.00     0.126 C 
ENDBRANCH  20  21
ENDBRANCH  19  20
ENDBRANCH  15  19
BRANCH  16  24
HETATM   24  O   UNK N   1      29.165  51.098  59.029  0.00  0.00    -0.390 OA
HETATM   25  H   UNK N   1      28.932  51.202  58.070  0.00  0.00     0.210 HD
ENDBRANCH  16  24
BRANCH  17  26
HETATM   26  O   UNK N   1      30.035  50.055  61.585  0.00  0.00    -0.390 OA
HETATM   27  H   UNK N   1      30.988  49.838  61.406  0.00  0.00     0.210 HD
ENDBRANCH  17  26
BRANCH  18  28
HETATM   28  O   UNK N   1      29.076  47.426  62.132  0.00  0.00    -0.388 OA
HETATM   29  H   UNK N   1      29.538  48.022  62.777  0.00  0.00     0.210 HD
ENDBRANCH  18  28
ENDBRANCH  12  13
ENDBRANCH   9  12
BRANCH  11  30
HETATM   30  O   UNK N   1      32.950  44.035  58.003  0.00  0.00    -0.360 OA
HETATM   31  H   UNK N   1      33.428  43.601  58.725  0.00  0.00     0.217 HD
ENDBRANCH  11  30
BRANCH   6  32
HETATM   32  C   UNK N   1      28.346  41.533  54.093  0.00  0.00    -0.002 A 
HETATM   33  C   UNK N   1      28.203  42.110  52.817  0.00  0.00     0.017 A 
HETATM   34  C   UNK N   1      27.344  41.544  51.874  0.00  0.00     0.037 A 
HETATM   35  C   UNK N   1      26.632  40.378  52.181  0.00  0.00     0.065 A 
HETATM   36  C   UNK N   1      26.779  39.788  53.439  0.00  0.00     0.037 A 
HETATM   37  C   UNK N   1      27.622  40.363  54.397  0.00  0.00     0.017 A 
BRANCH  35  38
HETATM   38  O   UNK N   1      25.806  39.820  51.273  0.00  0.00    -0.361 OA
HETATM   39  H   UNK N   1      25.912  39.979  50.324  0.00  0.00     0.217 HD
ENDBRANCH  35  38
ENDBRANCH   6  32
TORSDOF 11
ENDMDL
MODEL 3
REMARK VINA RESULT:      -6.7     13.542     15.945
REMARK  11 active torsions:
REMARK  status: ('A' for Active; 'I' for Inactive)
REMARK    1  A    between atoms: C_6  and  C_8 
REMARK    2  A    between atoms: C_11  and  O_12 
REMARK    3  A    between atoms: C_17  and  O_18 
REMARK    4  A    between atoms: O_18  and  C_19 
REMARK    5  A    between atoms: C_21  and  C_31 
REMARK    6  A    between atoms: C_22  and  O_23 
REMARK    7  A    between atoms: C_25  and  O_26 
REMARK    8  A    between atoms: C_28  and  O_29 
REMARK    9  A    between atoms: C_31  and  O_32 
REMARK   10  A    between atoms: O_32  and  C_33 
REMARK   11  A    between atoms: C_37  and  O_38 
ROOT
HETATM    1  O   UNK N   1      30.615  43.346  61.093  0.00  0.00    -0.287 OA
HETATM    2  C   UNK N   1      30.219  43.956  60.116  0.00  0.00     0.190 A 
HETATM    3  C   UNK N   1      29.839  43.283  58.935  0.00  0.00     0.081 A 
HETATM    4  C   UNK N   1      29.396  44.064  57.848  0.00  0.00     0.095 A 
HETATM    5  O   UNK N   1      29.359  45.386  57.934  0.00  0.00    -0.309 OA
HETATM    6  C   UNK N   1      29.692  46.057  59.032  0.00  0.00     0.090 A 
HETATM    7  C   UNK N   1      30.129  45.352  60.168  0.00  0.00     0.094 A 
HETATM    8  C   UNK N   1      28.973  43.461  56.669  0.00  0.00     0.075 A 
HETATM    9  C   UNK N   1      28.979  42.062  56.538  0.00  0.00     0.077 A 
HETATM   10  C   UNK N   1      29.443  41.278  57.600  0.00  0.00     0.074 A 
HETATM   11  C   UNK N   1      29.876  41.872  58.800  0.00  0.00     0.085 A 
ENDROOT
BRANCH   9  12
HETATM   12  O   UNK N   1      28.535  41.444  55.408  0.00  0.00    -0.318 OA
BRANCH  12  13
HETATM   13  C   UNK N   1      28.227  42.088  54.221  0.00  0.00     0.298 C 
HETATM   14  O   UNK N   1      26.898  41.753  53.846  0.00  0.00    -0.348 OA
HETATM   15  C   UNK N   1      26.488  42.520  52.727  0.00  0.00     0.180 C 
HETATM   16  C   UNK N   1      27.312  42.105  51.488  0.00  0.00     0.180 C 
HETATM   17  C   UNK N   1      28.809  42.324  51.800  0.00  0.00     0.183 C 
HETATM   18  C   UNK N   1      29.201  41.630  53.118  0.00  0.00     0.205 C 
BRANCH  15  19
HETATM   19  C   UNK N   1      24.988  42.293  52.506  0.00  0.00     0.213 C 
BRANCH  19  20
HETATM   20  O   UNK N   1      24.469  43.338  51.763  0.00  0.00    -0.319 OA
BRANCH  20  21
HETATM   21  C   UNK N   1      24.297  44.592  52.254  0.00  0.00     0.254 C 
HETATM   22  O   UNK N   1      24.175  44.783  53.456  0.00  0.00    -0.266 OA
HETATM   23  C   UNK N   1      24.257  45.750  51.308  0.00  0.00     0.126 C 
ENDBRANCH  20  21
ENDBRANCH  19  20
ENDBRANCH  15  19
BRANCH  16  24
HETATM   24  O   UNK N   1      26.928  42.879  50.380  0.00  0.00    -0.390 OA
HETATM   25  H   UNK N   1      27.462  42.562  49.606  0.00  0.00     0.210 HD
ENDBRANCH  16  24
BRANCH  17  26
HETATM   26  O   UNK N   1      29.621  41.883  50.739  0.00  0.00    -0.390 OA
HETATM   27  H   UNK N   1      30.540  41.760  51.100  0.00  0.00     0.210 HD
ENDBRANCH  17  26
BRANCH  18  28
HETATM   28  O   UNK N   1      30.523  41.977  53.443  0.00  0.00    -0.388 OA
HETATM   29  H   UNK N   1      31.108  41.596  52.739  0.00  0.00     0.210 HD
ENDBRANCH  18  28
ENDBRANCH  12  13
ENDBRANCH   9  12
BRANCH  11  30
HETATM   30  O   UNK N   1      30.312  41.093  59.813  0.00  0.00    -0.360 OA
HETATM   31  H   UNK N   1      29.737  40.445  60.245  0.00  0.00     0.217 HD
ENDBRANCH  11  30
BRANCH   6  32
HETATM   32  C   UNK N   1      29.581  47.538  58.999  0.00  0.00    -0.002 A 
HETATM   33  C   UNK N   1      29.142  48.213  60.155  0.00  0.00     0.017 A 
HETATM   34  C   UNK N   1      29.024  49.603  60.164  0.00  0.00     0.037 A 
HETATM   35  C   UNK N   1      29.366  50.346  59.028  0.00  0.00     0.065 A 
HETATM   36  C   UNK N   1      29.818  49.688  57.880  0.00  0.00     0.037 A 
HETATM   37  C   UNK N   1      29.918  48.293  57.858  0.00  0.00     0.017 A 
BRANCH  35  38
HETATM   38  O   UNK N   1      29.262  51.691  59.031  0.00  0.00    -0.361 OA
HETATM   39  H   UNK N   1      28.746  52.159  59.702  0.00  0.00     0.217 HD
ENDBRANCH  35  38
ENDBRANCH   6  32
TORSDOF 11
ENDMDL
MODEL 4
REMARK VINA RESULT:      -6.4     15.886     16.981
REMARK  11 active torsions:
REMARK  status: ('A' for Active; 'I' for Inactive)
REMARK    1  A    between atoms: C_6  and  C_8 
REMARK    2  A    between atoms: C_11  and  O_12 
REMARK    3  A    between atoms: C_17  and  O_18 
REMARK    4  A    between atoms: O_18  and  C_19 
REMARK    5  A    between atoms: C_21  and  C_31 
REMARK    6  A    between atoms: C_22  and  O_23 
REMARK    7  A    between atoms: C_25  and  O_26 
REMARK    8  A    between atoms: C_28  and  O_29 
REMARK    9  A    between atoms: C_31  and  O_32 
REMARK   10  A    between atoms: O_32  and  C_33 
REMARK   11  A    between atoms: C_37  and  O_38 
ROOT
HETATM    1  O   UNK N   1      48.697  48.746  60.642  0.00  0.00    -0.287 OA
HETATM    2  C   UNK N   1      47.993  49.694  60.941  0.00  0.00     0.190 A 
HETATM    3  C   UNK N   1      48.286  50.998  60.488  0.00  0.00     0.081 A 
HETATM    4  C   UNK N   1      47.422  52.040  60.882  0.00  0.00     0.095 A 
HETATM    5  O   UNK N   1      46.382  51.797  61.667  0.00  0.00    -0.309 OA
HETATM    6  C   UNK N   1      46.061  50.583  62.101  0.00  0.00     0.090 A 
HETATM    7  C   UNK N   1      46.863  49.485  61.739  0.00  0.00     0.094 A 
HETATM    8  C   UNK N   1      47.635  53.341  60.441  0.00  0.00     0.075 A 
HETATM    9  C   UNK N   1      48.715  53.643  59.594  0.00  0.00     0.077 A 
HETATM   10  C   UNK N   1      49.595  52.622  59.220  0.00  0.00     0.074 A 
HETATM   11  C   UNK N   1      49.395  51.300  59.658  0.00  0.00     0.085 A 
ENDROOT
BRANCH   9  12
HETATM   12  O   UNK N   1      48.924  54.902  59.118  0.00  0.00    -0.318 OA
BRANCH  12  13
HETATM   13  C   UNK N   1      48.473  55.373  57.896  0.00  0.00     0.298 C 
HETATM   14  O   UNK N   1      49.592  55.618  57.055  0.00  0.00    -0.348 OA
HETATM   15  C   UNK N   1      49.166  55.943  55.742  0.00  0.00     0.180 C 
HETATM   16  C   UNK N   1      48.440  57.307  55.759  0.00  0.00     0.180 C 
HETATM   17  C   UNK N   1      47.242  57.212  56.730  0.00  0.00     0.183 C 
HETATM   18  C   UNK N   1      47.693  56.685  58.106  0.00  0.00     0.205 C 
BRANCH  15  19
HETATM   19  C   UNK N   1      50.395  55.972  54.826  0.00  0.00     0.213 C 
BRANCH  19  20
HETATM   20  O   UNK N   1      50.454  54.798  54.099  0.00  0.00    -0.319 OA
BRANCH  20  21
HETATM   21  C   UNK N   1      51.448  53.882  54.234  0.00  0.00     0.254 C 
HETATM   22  O   UNK N   1      52.296  53.745  53.363  0.00  0.00    -0.266 OA
HETATM   23  C   UNK N   1      51.502  53.036  55.466  0.00  0.00     0.126 C 
ENDBRANCH  20  21
ENDBRANCH  19  20
ENDBRANCH  15  19
BRANCH  16  24
HETATM   24  O   UNK N   1      47.993  57.624  54.465  0.00  0.00    -0.390 OA
HETATM   25  H   UNK N   1      47.167  57.098  54.307  0.00  0.00     0.210 HD
ENDBRANCH  16  24
BRANCH  17  26
HETATM   26  O   UNK N   1      46.587  58.451  56.856  0.00  0.00    -0.390 OA
HETATM   27  H   UNK N   1      45.874  58.482  56.165  0.00  0.00     0.210 HD
ENDBRANCH  17  26
BRANCH  18  28
HETATM   28  O   UNK N   1      46.560  56.470  58.907  0.00  0.00    -0.388 OA
HETATM   29  H   UNK N   1      46.856  56.518  59.853  0.00  0.00     0.210 HD
ENDBRANCH  18  28
ENDBRANCH  12  13
ENDBRANCH   9  12
BRANCH  11  30
HETATM   30  O   UNK N   1      50.256  50.332  59.276  0.00  0.00    -0.360 OA
HETATM   31  H   UNK N   1      50.541  50.233  58.356  0.00  0.00     0.217 HD
ENDBRANCH  11  30
BRANCH   6  32
HETATM   32  C   UNK N   1      44.853  50.449  62.956  0.00  0.00    -0.002 A 
HETATM   33  C   UNK N   1      44.970  49.801  64.201  0.00  0.00     0.017 A 
HETATM   34  C   UNK N   1      43.859  49.654  65.032  0.00  0.00     0.037 A 
HETATM   35  C   UNK N   1      42.617  50.174  64.646  0.00  0.00     0.065 A 
HETATM   36  C   UNK N   1      42.493  50.833  63.420  0.00  0.00     0.037 A 
HETATM   37  C   UNK N   1      43.599  50.964  62.572  0.00  0.00     0.017 A 
BRANCH  35  38
HETATM   38  O   UNK N   1      41.541  50.044  65.447  0.00  0.00    -0.361 OA
HETATM   39  H   UNK N   1      41.550  50.351  66.365  0.00  0.00     0.217 HD
ENDBRANCH  35  38
ENDBRANCH   6  32
TORSDOF 11
ENDMDL
MODEL 5
REMARK VINA RESULT:      -6.4     15.546     18.194
REMARK  11 active torsions:
REMARK  status: ('A' for Active; 'I' for Inactive)
REMARK    1  A    between atoms: C_6  and  C_8 
REMARK    2  A    between atoms: C_11  and  O_12 
REMARK    3  A    between atoms: C_17  and  O_18 
REMARK    4  A    between atoms: O_18  and  C_19 
REMARK    5  A    between atoms: C_21  and  C_31 
REMARK    6  A    between atoms: C_22  and  O_23 
REMARK    7  A    between atoms: C_25  and  O_26 
REMARK    8  A    between atoms: C_28  and  O_29 
REMARK    9  A    between atoms: C_31  and  O_32 
REMARK   10  A    between atoms: O_32  and  C_33 
REMARK   11  A    between atoms: C_37  and  O_38 
ROOT
HETATM    1  O   UNK N   1      52.981  52.430  55.472  0.00  0.00    -0.287 OA
HETATM    2  C   UNK N   1      51.982  52.957  55.927  0.00  0.00     0.190 A 
HETATM    3  C   UNK N   1      51.323  52.428  57.057  0.00  0.00     0.081 A 
HETATM    4  C   UNK N   1      50.170  53.096  57.518  0.00  0.00     0.095 A 
HETATM    5  O   UNK N   1      49.716  54.173  56.893  0.00  0.00    -0.309 OA
HETATM    6  C   UNK N   1      50.315  54.713  55.837  0.00  0.00     0.090 A 
HETATM    7  C   UNK N   1      51.482  54.116  55.323  0.00  0.00     0.094 A 
HETATM    8  C   UNK N   1      49.496  52.647  58.648  0.00  0.00     0.075 A 
HETATM    9  C   UNK N   1      49.950  51.520  59.353  0.00  0.00     0.077 A 
HETATM   10  C   UNK N   1      51.077  50.833  58.888  0.00  0.00     0.074 A 
HETATM   11  C   UNK N   1      51.771  51.272  57.746  0.00  0.00     0.085 A 
ENDROOT
BRANCH   9  12
HETATM   12  O   UNK N   1      49.330  51.082  60.483  0.00  0.00    -0.318 OA
BRANCH  12  13
HETATM   13  C   UNK N   1      47.979  50.795  60.587  0.00  0.00     0.298 C 
HETATM   14  O   UNK N   1      47.457  51.441  61.739  0.00  0.00    -0.348 OA
HETATM   15  C   UNK N   1      46.046  51.308  61.788  0.00  0.00     0.180 C 
HETATM   16  C   UNK N   1      45.676  49.826  62.025  0.00  0.00     0.180 C 
HETATM   17  C   UNK N   1      46.280  48.982  60.882  0.00  0.00     0.183 C 
HETATM   18  C   UNK N   1      47.785  49.271  60.722  0.00  0.00     0.205 C 
BRANCH  15  19
HETATM   19  C   UNK N   1      45.512  52.207  62.909  0.00  0.00     0.213 C 
BRANCH  19  20
HETATM   20  O   UNK N   1      44.241  52.644  62.583  0.00  0.00    -0.319 OA
BRANCH  20  21
HETATM   21  C   UNK N   1      43.189  52.591  63.440  0.00  0.00     0.254 C 
HETATM   22  O   UNK N   1      42.554  51.557  63.588  0.00  0.00    -0.266 OA
HETATM   23  C   UNK N   1      42.808  53.816  64.209  0.00  0.00     0.126 C 
ENDBRANCH  20  21
ENDBRANCH  19  20
ENDBRANCH  15  19
BRANCH  16  24
HETATM   24  O   UNK N   1      44.279  49.683  62.051  0.00  0.00    -0.390 OA
HETATM   25  H   UNK N   1      44.045  48.999  61.371  0.00  0.00     0.210 HD
ENDBRANCH  16  24
BRANCH  17  26
HETATM   26  O   UNK N   1      46.052  47.609  61.085  0.00  0.00    -0.390 OA
HETATM   27  H   UNK N   1      45.088  47.496  61.300  0.00  0.00     0.210 HD
ENDBRANCH  17  26
BRANCH  18  28
HETATM   28  O   UNK N   1      48.262  48.604  59.582  0.00  0.00    -0.388 OA
HETATM   29  H   UNK N   1      47.783  48.980  58.800  0.00  0.00     0.210 HD
ENDBRANCH  18  28
ENDBRANCH  12  13
ENDBRANCH   9  12
BRANCH  11  30
HETATM   30  O   UNK N   1      52.860  50.595  57.323  0.00  0.00    -0.360 OA
HETATM   31  H   UNK N   1      53.292  50.795  56.480  0.00  0.00     0.217 HD
ENDBRANCH  11  30
BRANCH   6  32
HETATM   32  C   UNK N   1      49.712  55.936  55.247  0.00  0.00    -0.002 A 
HETATM   33  C   UNK N   1      49.985  56.248  53.901  0.00  0.00     0.017 A 
HETATM   34  C   UNK N   1      49.438  57.388  53.310  0.00  0.00     0.037 A 
HETATM   35  C   UNK N   1      48.589  58.223  54.047  0.00  0.00     0.065 A 
HETATM   36  C   UNK N   1      48.298  57.915  55.379  0.00  0.00     0.037 A 
HETATM   37  C   UNK N   1      48.861  56.784  55.983  0.00  0.00     0.017 A 
BRANCH  35  38
HETATM   38  O   UNK N   1      48.050  59.322  53.482  0.00  0.00    -0.361 OA
HETATM   39  H   UNK N   1      48.552  60.145  53.390  0.00  0.00     0.217 HD
ENDBRANCH  35  38
ENDBRANCH   6  32
TORSDOF 11
ENDMDL
MODEL 6
REMARK VINA RESULT:      -6.4      7.156     12.129
REMARK  11 active torsions:
REMARK  status: ('A' for Active; 'I' for Inactive)
REMARK    1  A    between atoms: C_6  and  C_8 
REMARK    2  A    between atoms: C_11  and  O_12 
REMARK    3  A    between atoms: C_17  and  O_18 
REMARK    4  A    between atoms: O_18  and  C_19 
REMARK    5  A    between atoms: C_21  and  C_31 
REMARK    6  A    between atoms: C_22  and  O_23 
REMARK    7  A    between atoms: C_25  and  O_26 
REMARK    8  A    between atoms: C_28  and  O_29 
REMARK    9  A    between atoms: C_31  and  O_32 
REMARK   10  A    between atoms: O_32  and  C_33 
REMARK   11  A    between atoms: C_37  and  O_38 
ROOT
HETATM    1  O   UNK N   1      33.779  54.782  45.404  0.00  0.00    -0.287 OA
HETATM    2  C   UNK N   1      33.407  53.935  44.612  0.00  0.00     0.190 A 
HETATM    3  C   UNK N   1      32.268  54.137  43.804  0.00  0.00     0.081 A 
HETATM    4  C   UNK N   1      31.902  53.104  42.915  0.00  0.00     0.095 A 
HETATM    5  O   UNK N   1      32.600  51.978  42.861  0.00  0.00    -0.309 OA
HETATM    6  C   UNK N   1      33.687  51.756  43.592  0.00  0.00     0.090 A 
HETATM    7  C   UNK N   1      34.129  52.743  44.493  0.00  0.00     0.094 A 
HETATM    8  C   UNK N   1      30.812  53.254  42.066  0.00  0.00     0.075 A 
HETATM    9  C   UNK N   1      30.053  54.436  42.076  0.00  0.00     0.077 A 
HETATM   10  C   UNK N   1      30.390  55.456  42.973  0.00  0.00     0.074 A 
HETATM   11  C   UNK N   1      31.489  55.321  43.841  0.00  0.00     0.085 A 
ENDROOT
BRANCH   9  12
HETATM   12  O   UNK N   1      29.004  54.624  41.229  0.00  0.00    -0.318 OA
BRANCH  12  13
HETATM   13  C   UNK N   1      27.874  53.825  41.177  0.00  0.00     0.298 C 
HETATM   14  O   UNK N   1      28.190  52.621  40.492  0.00  0.00    -0.348 OA
HETATM   15  C   UNK N   1      27.108  51.708  40.563  0.00  0.00     0.180 C 
HETATM   16  C   UNK N   1      25.912  52.262  39.755  0.00  0.00     0.180 C 
HETATM   17  C   UNK N   1      25.524  53.639  40.338  0.00  0.00     0.183 C 
HETATM   18  C   UNK N   1      26.753  54.565  40.421  0.00  0.00     0.205 C 
BRANCH  15  19
HETATM   19  C   UNK N   1      27.577  50.355  40.015  0.00  0.00     0.213 C 
BRANCH  19  20
HETATM   20  O   UNK N   1      28.241  49.661  41.011  0.00  0.00    -0.319 OA
BRANCH  20  21
HETATM   21  C   UNK N   1      29.416  49.010  40.813  0.00  0.00     0.254 C 
HETATM   22  O   UNK N   1      29.431  47.826  40.505  0.00  0.00    -0.266 OA
HETATM   23  C   UNK N   1      30.703  49.754  40.975  0.00  0.00     0.126 C 
ENDBRANCH  20  21
ENDBRANCH  19  20
ENDBRANCH  15  19
BRANCH  16  24
HETATM   24  O   UNK N   1      24.828  51.374  39.841  0.00  0.00    -0.390 OA
HETATM   25  H   UNK N   1      25.206  50.457  39.863  0.00  0.00     0.210 HD
ENDBRANCH  16  24
BRANCH  17  26
HETATM   26  O   UNK N   1      24.494  54.238  39.590  0.00  0.00    -0.390 OA
HETATM   27  H   UNK N   1      23.674  54.228  40.152  0.00  0.00     0.210 HD
ENDBRANCH  17  26
BRANCH  18  28
HETATM   28  O   UNK N   1      26.393  55.745  41.092  0.00  0.00    -0.388 OA
HETATM   29  H   UNK N   1      27.212  56.297  41.176  0.00  0.00     0.210 HD
ENDBRANCH  18  28
ENDBRANCH  12  13
ENDBRANCH   9  12
BRANCH  11  30
HETATM   30  O   UNK N   1      31.797  56.323  44.692  0.00  0.00    -0.360 OA
HETATM   31  H   UNK N   1      32.664  56.754  44.684  0.00  0.00     0.217 HD
ENDBRANCH  11  30
BRANCH   6  32
HETATM   32  C   UNK N   1      34.389  50.458  43.415  0.00  0.00    -0.002 A 
HETATM   33  C   UNK N   1      33.635  49.269  43.443  0.00  0.00     0.017 A 
HETATM   34  C   UNK N   1      34.257  48.030  43.281  0.00  0.00     0.037 A 
HETATM   35  C   UNK N   1      35.638  47.959  43.064  0.00  0.00     0.065 A 
HETATM   36  C   UNK N   1      36.394  49.134  43.019  0.00  0.00     0.037 A 
HETATM   37  C   UNK N   1      35.779  50.378  43.202  0.00  0.00     0.017 A 
BRANCH  35  38
HETATM   38  O   UNK N   1      36.246  46.766  42.899  0.00  0.00    -0.361 OA
HETATM   39  H   UNK N   1      36.986  46.491  43.458  0.00  0.00     0.217 HD
ENDBRANCH  35  38
ENDBRANCH   6  32
TORSDOF 11
ENDMDL
MODEL 7
REMARK VINA RESULT:      -6.3     13.344     18.475
REMARK  11 active torsions:
REMARK  status: ('A' for Active; 'I' for Inactive)
REMARK    1  A    between atoms: C_6  and  C_8 
REMARK    2  A    between atoms: C_11  and  O_12 
REMARK    3  A    between atoms: C_17  and  O_18 
REMARK    4  A    between atoms: O_18  and  C_19 
REMARK    5  A    between atoms: C_21  and  C_31 
REMARK    6  A    between atoms: C_22  and  O_23 
REMARK    7  A    between atoms: C_25  and  O_26 
REMARK    8  A    between atoms: C_28  and  O_29 
REMARK    9  A    between atoms: C_31  and  O_32 
REMARK   10  A    between atoms: O_32  and  C_33 
REMARK   11  A    between atoms: C_37  and  O_38 
ROOT
HETATM    1  O   UNK N   1      27.300  48.445  61.924  0.00  0.00    -0.287 OA
HETATM    2  C   UNK N   1      28.093  48.058  61.085  0.00  0.00     0.190 A 
HETATM    3  C   UNK N   1      28.827  46.865  61.263  0.00  0.00     0.081 A 
HETATM    4  C   UNK N   1      29.728  46.491  60.245  0.00  0.00     0.095 A 
HETATM    5  O   UNK N   1      29.889  47.249  59.169  0.00  0.00    -0.309 OA
HETATM    6  C   UNK N   1      29.206  48.368  58.956  0.00  0.00     0.090 A 
HETATM    7  C   UNK N   1      28.274  48.805  59.915  0.00  0.00     0.094 A 
HETATM    8  C   UNK N   1      30.454  45.309  60.342  0.00  0.00     0.075 A 
HETATM    9  C   UNK N   1      30.305  44.465  61.456  0.00  0.00     0.077 A 
HETATM   10  C   UNK N   1      29.434  44.842  62.485  0.00  0.00     0.074 A 
HETATM   11  C   UNK N   1      28.692  46.034  62.404  0.00  0.00     0.085 A 
ENDROOT
BRANCH   9  12
HETATM   12  O   UNK N   1      30.976  43.285  61.559  0.00  0.00    -0.318 OA
BRANCH  12  13
HETATM   13  C   UNK N   1      32.354  43.157  61.593  0.00  0.00     0.298 C 
HETATM   14  O   UNK N   1      32.903  44.265  62.293  0.00  0.00    -0.348 OA
HETATM   15  C   UNK N   1      34.296  44.087  62.493  0.00  0.00     0.180 C 
HETATM   16  C   UNK N   1      35.023  44.144  61.131  0.00  0.00     0.180 C 
HETATM   17  C   UNK N   1      34.442  43.040  60.220  0.00  0.00     0.183 C 
HETATM   18  C   UNK N   1      32.906  43.137  60.154  0.00  0.00     0.205 C 
BRANCH  15  19
HETATM   19  C   UNK N   1      34.793  45.183  63.443  0.00  0.00     0.213 C 
BRANCH  19  20
HETATM   20  O   UNK N   1      35.092  46.321  62.715  0.00  0.00    -0.319 OA
BRANCH  20  21
HETATM   21  C   UNK N   1      36.230  47.041  62.887  0.00  0.00     0.254 C 
HETATM   22  O   UNK N   1      37.328  46.512  62.783  0.00  0.00    -0.266 OA
HETATM   23  C   UNK N   1      36.133  48.500  63.205  0.00  0.00     0.126 C 
ENDBRANCH  20  21
ENDBRANCH  19  20
ENDBRANCH  15  19
BRANCH  16  24
HETATM   24  O   UNK N   1      36.401  43.944  61.319  0.00  0.00    -0.390 OA
HETATM   25  H   UNK N   1      36.648  44.405  62.163  0.00  0.00     0.210 HD
ENDBRANCH  16  24
BRANCH  17  26
HETATM   26  O   UNK N   1      35.004  43.094  58.931  0.00  0.00    -0.390 OA
HETATM   27  H   UNK N   1      35.166  42.158  58.638  0.00  0.00     0.210 HD
ENDBRANCH  17  26
BRANCH  18  28
HETATM   28  O   UNK N   1      32.407  42.033  59.443  0.00  0.00    -0.388 OA
HETATM   29  H   UNK N   1      32.959  41.248  59.695  0.00  0.00     0.210 HD
ENDBRANCH  18  28
ENDBRANCH  12  13
ENDBRANCH   9  12
BRANCH  11  30
HETATM   30  O   UNK N   1      27.854  46.370  63.408  0.00  0.00    -0.360 OA
HETATM   31  H   UNK N   1      27.288  45.717  63.843  0.00  0.00     0.217 HD
ENDBRANCH  11  30
BRANCH   6  32
HETATM   32  C   UNK N   1      29.467  49.109  57.695  0.00  0.00    -0.002 A 
HETATM   33  C   UNK N   1      28.420  49.847  57.110  0.00  0.00     0.017 A 
HETATM   34  C   UNK N   1      28.624  50.556  55.925  0.00  0.00     0.037 A 
HETATM   35  C   UNK N   1      29.886  50.560  55.317  0.00  0.00     0.065 A 
HETATM   36  C   UNK N   1      30.937  49.845  55.897  0.00  0.00     0.037 A 
HETATM   37  C   UNK N   1      30.732  49.114  57.073  0.00  0.00     0.017 A 
BRANCH  35  38
HETATM   38  O   UNK N   1      30.095  51.249  54.177  0.00  0.00    -0.361 OA
HETATM   39  H   UNK N   1      29.780  52.158  54.068  0.00  0.00     0.217 HD
ENDBRANCH  35  38
ENDBRANCH   6  32
TORSDOF 11
ENDMDL
MODEL 8
REMARK VINA RESULT:      -6.3      7.224     12.734
REMARK  11 active torsions:
REMARK  status: ('A' for Active; 'I' for Inactive)
REMARK    1  A    between atoms: C_6  and  C_8 
REMARK    2  A    between atoms: C_11  and  O_12 
REMARK    3  A    between atoms: C_17  and  O_18 
REMARK    4  A    between atoms: O_18  and  C_19 
REMARK    5  A    between atoms: C_21  and  C_31 
REMARK    6  A    between atoms: C_22  and  O_23 
REMARK    7  A    between atoms: C_25  and  O_26 
REMARK    8  A    between atoms: C_28  and  O_29 
REMARK    9  A    between atoms: C_31  and  O_32 
REMARK   10  A    between atoms: O_32  and  C_33 
REMARK   11  A    between atoms: C_37  and  O_38 
ROOT
HETATM    1  O   UNK N   1      33.317  54.559  45.373  0.00  0.00    -0.287 OA
HETATM    2  C   UNK N   1      33.062  53.740  44.508  0.00  0.00     0.190 A 
HETATM    3  C   UNK N   1      32.039  53.966  43.562  0.00  0.00     0.081 A 
HETATM    4  C   UNK N   1      31.806  52.966  42.596  0.00  0.00     0.095 A 
HETATM    5  O   UNK N   1      32.515  51.846  42.594  0.00  0.00    -0.309 OA
HETATM    6  C   UNK N   1      33.498  51.602  43.455  0.00  0.00     0.090 A 
HETATM    7  C   UNK N   1      33.806  52.556  44.442  0.00  0.00     0.094 A 
HETATM    8  C   UNK N   1      30.837  53.142  41.614  0.00  0.00     0.075 A 
HETATM    9  C   UNK N   1      30.072  54.320  41.565  0.00  0.00     0.077 A 
HETATM   10  C   UNK N   1      30.276  55.306  42.537  0.00  0.00     0.074 A 
HETATM   11  C   UNK N   1      31.251  55.144  43.538  0.00  0.00     0.085 A 
ENDROOT
BRANCH   9  12
HETATM   12  O   UNK N   1      29.143  54.534  40.593  0.00  0.00    -0.318 OA
BRANCH  12  13
HETATM   13  C   UNK N   1      27.922  53.887  40.507  0.00  0.00     0.298 C 
HETATM   14  O   UNK N   1      27.821  53.257  39.238  0.00  0.00    -0.348 OA
HETATM   15  C   UNK N   1      26.659  52.448  39.174  0.00  0.00     0.180 C 
HETATM   16  C   UNK N   1      25.403  53.348  39.214  0.00  0.00     0.180 C 
HETATM   17  C   UNK N   1      25.437  54.178  40.515  0.00  0.00     0.183 C 
HETATM   18  C   UNK N   1      26.783  54.914  40.660  0.00  0.00     0.205 C 
BRANCH  15  19
HETATM   19  C   UNK N   1      26.715  51.618  37.885  0.00  0.00     0.213 C 
BRANCH  19  20
HETATM   20  O   UNK N   1      26.062  50.416  38.084  0.00  0.00    -0.319 OA
BRANCH  20  21
HETATM   21  C   UNK N   1      25.118  49.928  37.238  0.00  0.00     0.254 C 
HETATM   22  O   UNK N   1      24.238  50.654  36.798  0.00  0.00    -0.266 OA
HETATM   23  C   UNK N   1      25.162  48.486  36.845  0.00  0.00     0.126 C 
ENDBRANCH  20  21
ENDBRANCH  19  20
ENDBRANCH  15  19
BRANCH  16  24
HETATM   24  O   UNK N   1      24.246  52.551  39.175  0.00  0.00    -0.390 OA
HETATM   25  H   UNK N   1      24.487  51.714  38.699  0.00  0.00     0.210 HD
ENDBRANCH  16  24
BRANCH  17  26
HETATM   26  O   UNK N   1      24.362  55.083  40.573  0.00  0.00    -0.390 OA
HETATM   27  H   UNK N   1      24.692  55.960  40.240  0.00  0.00     0.210 HD
ENDBRANCH  17  26
BRANCH  18  28
HETATM   28  O   UNK N   1      26.834  55.532  41.921  0.00  0.00    -0.388 OA
HETATM   29  H   UNK N   1      26.227  55.027  42.520  0.00  0.00     0.210 HD
ENDBRANCH  18  28
ENDBRANCH  12  13
ENDBRANCH   9  12
BRANCH  11  30
HETATM   30  O   UNK N   1      31.432  56.115  44.459  0.00  0.00    -0.360 OA
HETATM   31  H   UNK N   1      30.692  56.626  44.817  0.00  0.00     0.217 HD
ENDBRANCH  11  30
BRANCH   6  32
HETATM   32  C   UNK N   1      34.229  50.315  43.326  0.00  0.00    -0.002 A 
HETATM   33  C   UNK N   1      35.627  50.341  43.158  0.00  0.00     0.017 A 
HETATM   34  C   UNK N   1      36.350  49.154  43.033  0.00  0.00     0.037 A 
HETATM   35  C   UNK N   1      35.692  47.920  43.097  0.00  0.00     0.065 A 
HETATM   36  C   UNK N   1      34.307  47.881  43.280  0.00  0.00     0.037 A 
HETATM   37  C   UNK N   1      33.574  49.069  43.385  0.00  0.00     0.017 A 
BRANCH  35  38
HETATM   38  O   UNK N   1      36.384  46.768  42.985  0.00  0.00    -0.361 OA
HETATM   39  H   UNK N   1      35.942  45.907  42.995  0.00  0.00     0.217 HD
ENDBRANCH  35  38
ENDBRANCH   6  32
TORSDOF 11
ENDMDL
MODEL 9
REMARK VINA RESULT:      -6.2     15.808     17.544
REMARK  11 active torsions:
REMARK  status: ('A' for Active; 'I' for Inactive)
REMARK    1  A    between atoms: C_6  and  C_8 
REMARK    2  A    between atoms: C_11  and  O_12 
REMARK    3  A    between atoms: C_17  and  O_18 
REMARK    4  A    between atoms: O_18  and  C_19 
REMARK    5  A    between atoms: C_21  and  C_31 
REMARK    6  A    between atoms: C_22  and  O_23 
REMARK    7  A    between atoms: C_25  and  O_26 
REMARK    8  A    between atoms: C_28  and  O_29 
REMARK    9  A    between atoms: C_31  and  O_32 
REMARK   10  A    between atoms: O_32  and  C_33 
REMARK   11  A    between atoms: C_37  and  O_38 
ROOT
HETATM    1  O   UNK N   1      46.485  47.736  60.477  0.00  0.00    -0.287 OA
HETATM    2  C   UNK N   1      46.580  48.916  60.763  0.00  0.00     0.190 A 
HETATM    3  C   UNK N   1      47.734  49.659  60.435  0.00  0.00     0.081 A 
HETATM    4  C   UNK N   1      47.767  51.019  60.806  0.00  0.00     0.095 A 
HETATM    5  O   UNK N   1      46.751  51.568  61.457  0.00  0.00    -0.309 OA
HETATM    6  C   UNK N   1      45.640  50.909  61.769  0.00  0.00     0.090 A 
HETATM    7  C   UNK N   1      45.521  49.551  61.420  0.00  0.00     0.094 A 
HETATM    8  C   UNK N   1      48.858  51.816  60.481  0.00  0.00     0.075 A 
HETATM    9  C   UNK N   1      49.951  51.282  59.777  0.00  0.00     0.077 A 
HETATM   10  C   UNK N   1      49.942  49.926  59.430  0.00  0.00     0.074 A 
HETATM   11  C   UNK N   1      48.846  49.105  59.751  0.00  0.00     0.085 A 
ENDROOT
BRANCH   9  12
HETATM   12  O   UNK N   1      51.016  52.048  59.414  0.00  0.00    -0.318 OA
BRANCH  12  13
HETATM   13  C   UNK N   1      50.955  53.140  58.564  0.00  0.00     0.298 C 
HETATM   14  O   UNK N   1      50.288  54.205  59.228  0.00  0.00    -0.348 OA
HETATM   15  C   UNK N   1      50.351  55.391  58.453  0.00  0.00     0.180 C 
HETATM   16  C   UNK N   1      49.516  55.210  57.165  0.00  0.00     0.180 C 
HETATM   17  C   UNK N   1      50.076  54.001  56.385  0.00  0.00     0.183 C 
HETATM   18  C   UNK N   1      50.170  52.759  57.292  0.00  0.00     0.205 C 
BRANCH  15  19
HETATM   19  C   UNK N   1      49.828  56.554  59.304  0.00  0.00     0.213 C 
BRANCH  19  20
HETATM   20  O   UNK N   1      48.445  56.562  59.271  0.00  0.00    -0.319 OA
BRANCH  20  21
HETATM   21  C   UNK N   1      47.670  56.113  60.291  0.00  0.00     0.254 C 
HETATM   22  O   UNK N   1      47.789  56.574  61.418  0.00  0.00    -0.266 OA
HETATM   23  C   UNK N   1      46.659  55.043  60.027  0.00  0.00     0.126 C 
ENDBRANCH  20  21
ENDBRANCH  19  20
ENDBRANCH  15  19
BRANCH  16  24
HETATM   24  O   UNK N   1      49.594  56.373  56.382  0.00  0.00    -0.390 OA
HETATM   25  H   UNK N   1      50.420  56.301  55.838  0.00  0.00     0.210 HD
ENDBRANCH  16  24
BRANCH  17  26
HETATM   26  O   UNK N   1      49.304  53.729  55.241  0.00  0.00    -0.390 OA
HETATM   27  H   UNK N   1      48.941  54.595  54.914  0.00  0.00     0.210 HD
ENDBRANCH  17  26
BRANCH  18  28
HETATM   28  O   UNK N   1      50.822  51.729  56.594  0.00  0.00    -0.388 OA
HETATM   29  H   UNK N   1      51.399  52.157  55.910  0.00  0.00     0.210 HD
ENDBRANCH  18  28
ENDBRANCH  12  13
ENDBRANCH   9  12
BRANCH  11  30
HETATM   30  O   UNK N   1      48.859  47.802  59.397  0.00  0.00    -0.360 OA
HETATM   31  H   UNK N   1      49.465  47.460  58.724  0.00  0.00     0.217 HD
ENDBRANCH  11  30
BRANCH   6  32
HETATM   32  C   UNK N   1      44.568  51.653  62.479  0.00  0.00    -0.002 A 
HETATM   33  C   UNK N   1      44.746  53.027  62.731  0.00  0.00     0.017 A 
HETATM   34  C   UNK N   1      43.763  53.761  63.396  0.00  0.00     0.037 A 
HETATM   35  C   UNK N   1      42.574  53.141  63.798  0.00  0.00     0.065 A 
HETATM   36  C   UNK N   1      42.379  51.781  63.539  0.00  0.00     0.037 A 
HETATM   37  C   UNK N   1      43.371  51.035  62.892  0.00  0.00     0.017 A 
BRANCH  35  38
HETATM   38  O   UNK N   1      41.615  53.845  64.434  0.00  0.00    -0.361 OA
HETATM   39  H   UNK N   1      40.773  54.057  64.006  0.00  0.00     0.217 HD
ENDBRANCH  35  38
ENDBRANCH   6  32
TORSDOF 11
ENDMDL
