MODEL 1
REMARK VINA RESULT:      -5.9      0.000      0.000
REMARK  8 active torsions:
REMARK  status: ('A' for Active; 'I' for Inactive)
REMARK    1  A    between atoms: C_6  and  C_8 
REMARK    2  A    between atoms: C_11  and  O_12 
REMARK    3  A    between atoms: C_17  and  O_18 
REMARK    4  A    between atoms: O_18  and  C_19 
REMARK    5  A    between atoms: C_22  and  O_23 
REMARK    6  A    between atoms: C_25  and  O_26 
REMARK    7  A    between atoms: C_28  and  O_29 
REMARK    8  A    between atoms: C_33  and  O_34 
ROOT
HETATM    1  O   UNK N   1      33.205  54.866  44.990  0.00  0.00    -0.287 OA
HETATM    2  C   UNK N   1      32.879  53.960  44.244  0.00  0.00     0.190 A 
HETATM    3  C   UNK N   1      31.735  54.062  43.423  0.00  0.00     0.081 A 
HETATM    4  C   UNK N   1      31.429  52.970  42.584  0.00  0.00     0.095 A 
HETATM    5  O   UNK N   1      32.176  51.874  42.599  0.00  0.00    -0.309 OA
HETATM    6  C   UNK N   1      33.264  51.743  43.351  0.00  0.00     0.090 A 
HETATM    7  C   UNK N   1      33.656  52.798  44.193  0.00  0.00     0.094 A 
HETATM    8  C   UNK N   1      30.345  53.030  41.712  0.00  0.00     0.075 A 
HETATM    9  C   UNK N   1      29.526  54.170  41.668  0.00  0.00     0.077 A 
HETATM   10  C   UNK N   1      29.795  55.241  42.527  0.00  0.00     0.074 A 
HETATM   11  C   UNK N   1      30.897  55.206  43.399  0.00  0.00     0.085 A 
ENDROOT
BRANCH   9  12
HETATM   12  O   UNK N   1      28.486  54.272  40.798  0.00  0.00    -0.318 OA
BRANCH  12  13
HETATM   13  C   UNK N   1      27.984  53.211  40.063  0.00  0.00     0.298 C 
HETATM   14  O   UNK N   1      28.296  53.446  38.697  0.00  0.00    -0.351 OA
HETATM   15  C   UNK N   1      27.868  52.374  37.876  0.00  0.00     0.152 C 
HETATM   16  C   UNK N   1      26.327  52.287  37.888  0.00  0.00     0.178 C 
HETATM   17  C   UNK N   1      28.402  52.604  36.461  0.00  0.00     0.042 C 
HETATM   18  C   UNK N   1      25.881  52.040  39.343  0.00  0.00     0.183 C 
HETATM   19  C   UNK N   1      26.458  53.137  40.268  0.00  0.00     0.205 C 
BRANCH  16  20
HETATM   20  O   UNK N   1      25.786  53.492  37.403  0.00  0.00    -0.390 OA
HETATM   21  H   UNK N   1      24.882  53.585  37.798  0.00  0.00     0.210 HD
ENDBRANCH  16  20
BRANCH  18  22
HETATM   22  O   UNK N   1      24.480  51.954  39.437  0.00  0.00    -0.390 OA
HETATM   23  H   UNK N   1      24.223  51.000  39.332  0.00  0.00     0.210 HD
ENDBRANCH  18  22
BRANCH  19  24
HETATM   24  O   UNK N   1      26.190  52.843  41.616  0.00  0.00    -0.388 OA
HETATM   25  H   UNK N   1      25.337  52.337  41.642  0.00  0.00     0.210 HD
ENDBRANCH  19  24
ENDBRANCH  12  13
ENDBRANCH   9  12
BRANCH  11  26
HETATM   26  O   UNK N   1      31.153  56.265  44.196  0.00  0.00    -0.360 OA
HETATM   27  H   UNK N   1      30.680  56.404  45.029  0.00  0.00     0.217 HD
ENDBRANCH  11  26
BRANCH   6  28
HETATM   28  C   UNK N   1      34.020  50.467  43.265  0.00  0.00    -0.002 A 
HETATM   29  C   UNK N   1      35.421  50.514  43.140  0.00  0.00     0.017 A 
HETATM   30  C   UNK N   1      36.166  49.337  43.055  0.00  0.00     0.037 A 
HETATM   31  C   UNK N   1      35.526  48.092  43.118  0.00  0.00     0.065 A 
HETATM   32  C   UNK N   1      34.135  48.035  43.257  0.00  0.00     0.037 A 
HETATM   33  C   UNK N   1      33.381  49.213  43.320  0.00  0.00     0.017 A 
BRANCH  31  34
HETATM   34  O   UNK N   1      36.237  46.950  43.046  0.00  0.00    -0.361 OA
HETATM   35  H   UNK N   1      36.622  46.541  43.836  0.00  0.00     0.217 HD
ENDBRANCH  31  34
ENDBRANCH   6  28
TORSDOF 8
ENDMDL
MODEL 2
REMARK VINA RESULT:      -5.8     15.445     18.134
REMARK  8 active torsions:
REMARK  status: ('A' for Active; 'I' for Inactive)
REMARK    1  A    between atoms: C_6  and  C_8 
REMARK    2  A    between atoms: C_11  and  O_12 
REMARK    3  A    between atoms: C_17  and  O_18 
REMARK    4  A    between atoms: O_18  and  C_19 
REMARK    5  A    between atoms: C_22  and  O_23 
REMARK    6  A    between atoms: C_25  and  O_26 
REMARK    7  A    between atoms: C_28  and  O_29 
REMARK    8  A    between atoms: C_33  and  O_34 
ROOT
HETATM    1  O   UNK N   1      31.096  43.011  60.801  0.00  0.00    -0.287 OA
HETATM    2  C   UNK N   1      30.574  43.652  59.907  0.00  0.00     0.190 A 
HETATM    3  C   UNK N   1      30.083  43.022  58.743  0.00  0.00     0.081 A 
HETATM    4  C   UNK N   1      29.489  43.836  57.756  0.00  0.00     0.095 A 
HETATM    5  O   UNK N   1      29.430  45.152  57.909  0.00  0.00    -0.309 OA
HETATM    6  C   UNK N   1      29.873  45.781  58.992  0.00  0.00     0.090 A 
HETATM    7  C   UNK N   1      30.451  45.040  60.037  0.00  0.00     0.094 A 
HETATM    8  C   UNK N   1      28.938  43.270  56.609  0.00  0.00     0.075 A 
HETATM    9  C   UNK N   1      28.984  41.880  56.406  0.00  0.00     0.077 A 
HETATM   10  C   UNK N   1      29.609  41.069  57.358  0.00  0.00     0.074 A 
HETATM   11  C   UNK N   1      30.152  41.621  58.532  0.00  0.00     0.085 A 
ENDROOT
BRANCH   9  12
HETATM   12  O   UNK N   1      28.417  41.296  55.317  0.00  0.00    -0.318 OA
BRANCH  12  13
HETATM   13  C   UNK N   1      28.107  41.973  54.149  0.00  0.00     0.298 C 
HETATM   14  O   UNK N   1      26.781  41.615  53.782  0.00  0.00    -0.351 OA
HETATM   15  C   UNK N   1      26.359  42.311  52.623  0.00  0.00     0.152 C 
HETATM   16  C   UNK N   1      27.205  41.871  51.409  0.00  0.00     0.178 C 
HETATM   17  C   UNK N   1      24.873  42.023  52.401  0.00  0.00     0.042 C 
HETATM   18  C   UNK N   1      28.677  42.211  51.713  0.00  0.00     0.183 C 
HETATM   19  C   UNK N   1      29.106  41.561  53.050  0.00  0.00     0.205 C 
BRANCH  16  20
HETATM   20  O   UNK N   1      27.048  40.488  51.206  0.00  0.00    -0.390 OA
HETATM   21  H   UNK N   1      26.421  40.161  51.902  0.00  0.00     0.210 HD
ENDBRANCH  16  20
BRANCH  18  22
HETATM   22  O   UNK N   1      29.516  41.833  50.649  0.00  0.00    -0.390 OA
HETATM   23  H   UNK N   1      30.447  42.082  50.889  0.00  0.00     0.210 HD
ENDBRANCH  18  22
BRANCH  19  24
HETATM   24  O   UNK N   1      30.394  41.986  53.419  0.00  0.00    -0.388 OA
HETATM   25  H   UNK N   1      30.860  41.203  53.812  0.00  0.00     0.210 HD
ENDBRANCH  19  24
ENDBRANCH  12  13
ENDBRANCH   9  12
BRANCH  11  26
HETATM   26  O   UNK N   1      30.723  40.813  59.449  0.00  0.00    -0.360 OA
HETATM   27  H   UNK N   1      31.268  41.161  60.170  0.00  0.00     0.217 HD
ENDBRANCH  11  26
BRANCH   6  28
HETATM   28  C   UNK N   1      29.736  47.260  59.044  0.00  0.00    -0.002 A 
HETATM   29  C   UNK N   1      30.026  48.010  57.888  0.00  0.00     0.017 A 
HETATM   30  C   UNK N   1      29.910  49.401  57.898  0.00  0.00     0.037 A 
HETATM   31  C   UNK N   1      29.480  50.064  59.054  0.00  0.00     0.065 A 
HETATM   32  C   UNK N   1      29.177  49.326  60.203  0.00  0.00     0.037 A 
HETATM   33  C   UNK N   1      29.312  47.933  60.206  0.00  0.00     0.017 A 
BRANCH  31  34
HETATM   34  O   UNK N   1      29.356  51.405  59.070  0.00  0.00    -0.361 OA
HETATM   35  H   UNK N   1      30.023  51.982  58.669  0.00  0.00     0.217 HD
ENDBRANCH  31  34
ENDBRANCH   6  28
TORSDOF 8
ENDMDL
MODEL 3
REMARK VINA RESULT:      -5.7      1.119      2.147
REMARK  8 active torsions:
REMARK  status: ('A' for Active; 'I' for Inactive)
REMARK    1  A    between atoms: C_6  and  C_8 
REMARK    2  A    between atoms: C_11  and  O_12 
REMARK    3  A    between atoms: C_17  and  O_18 
REMARK    4  A    between atoms: O_18  and  C_19 
REMARK    5  A    between atoms: C_22  and  O_23 
REMARK    6  A    between atoms: C_25  and  O_26 
REMARK    7  A    between atoms: C_28  and  O_29 
REMARK    8  A    between atoms: C_33  and  O_34 
ROOT
HETATM    1  O   UNK N   1      32.110  54.309  44.971  0.00  0.00    -0.287 OA
HETATM    2  C   UNK N   1      32.132  53.462  44.095  0.00  0.00     0.190 A 
HETATM    3  C   UNK N   1      31.219  53.496  43.019  0.00  0.00     0.081 A 
HETATM    4  C   UNK N   1      31.314  52.480  42.046  0.00  0.00     0.095 A 
HETATM    5  O   UNK N   1      32.211  51.509  42.164  0.00  0.00    -0.309 OA
HETATM    6  C   UNK N   1      33.092  51.447  43.157  0.00  0.00     0.090 A 
HETATM    7  C   UNK N   1      33.085  52.439  44.152  0.00  0.00     0.094 A 
HETATM    8  C   UNK N   1      30.478  52.486  40.932  0.00  0.00     0.075 A 
HETATM    9  C   UNK N   1      29.512  53.493  40.771  0.00  0.00     0.077 A 
HETATM   10  C   UNK N   1      29.380  54.481  41.753  0.00  0.00     0.074 A 
HETATM   11  C   UNK N   1      30.230  54.501  42.873  0.00  0.00     0.085 A 
ENDROOT
BRANCH   9  12
HETATM   12  O   UNK N   1      28.710  53.548  39.674  0.00  0.00    -0.318 OA
BRANCH  12  13
HETATM   13  C   UNK N   1      27.370  53.197  39.675  0.00  0.00     0.298 C 
HETATM   14  O   UNK N   1      27.249  51.965  40.373  0.00  0.00    -0.351 OA
HETATM   15  C   UNK N   1      25.896  51.558  40.474  0.00  0.00     0.152 C 
HETATM   16  C   UNK N   1      25.337  51.240  39.071  0.00  0.00     0.178 C 
HETATM   17  C   UNK N   1      25.824  50.337  41.393  0.00  0.00     0.042 C 
HETATM   18  C   UNK N   1      25.434  52.523  38.223  0.00  0.00     0.183 C 
HETATM   19  C   UNK N   1      26.889  53.048  38.219  0.00  0.00     0.205 C 
BRANCH  16  20
HETATM   20  O   UNK N   1      26.094  50.205  38.490  0.00  0.00    -0.390 OA
HETATM   21  H   UNK N   1      25.801  49.357  38.914  0.00  0.00     0.210 HD
ENDBRANCH  16  20
BRANCH  18  22
HETATM   22  O   UNK N   1      24.946  52.310  36.921  0.00  0.00    -0.390 OA
HETATM   23  H   UNK N   1      25.042  51.344  36.711  0.00  0.00     0.210 HD
ENDBRANCH  18  22
BRANCH  19  24
HETATM   24  O   UNK N   1      26.966  54.297  37.580  0.00  0.00    -0.388 OA
HETATM   25  H   UNK N   1      26.675  54.165  36.641  0.00  0.00     0.210 HD
ENDBRANCH  19  24
ENDBRANCH  12  13
ENDBRANCH   9  12
BRANCH  11  26
HETATM   26  O   UNK N   1      30.102  55.482  43.791  0.00  0.00    -0.360 OA
HETATM   27  H   UNK N   1      30.734  55.589  44.517  0.00  0.00     0.217 HD
ENDBRANCH  11  26
BRANCH   6  28
HETATM   28  C   UNK N   1      34.052  50.314  43.166  0.00  0.00    -0.002 A 
HETATM   29  C   UNK N   1      33.552  49.000  43.240  0.00  0.00     0.017 A 
HETATM   30  C   UNK N   1      34.422  47.909  43.253  0.00  0.00     0.037 A 
HETATM   31  C   UNK N   1      35.805  48.111  43.166  0.00  0.00     0.065 A 
HETATM   32  C   UNK N   1      36.311  49.412  43.078  0.00  0.00     0.037 A 
HETATM   33  C   UNK N   1      35.444  50.511  43.088  0.00  0.00     0.017 A 
BRANCH  31  34
HETATM   34  O   UNK N   1      36.653  47.063  43.167  0.00  0.00    -0.361 OA
HETATM   35  H   UNK N   1      36.590  46.358  42.506  0.00  0.00     0.217 HD
ENDBRANCH  31  34
ENDBRANCH   6  28
TORSDOF 8
ENDMDL
MODEL 4
REMARK VINA RESULT:      -5.6     19.135     22.979
REMARK  8 active torsions:
REMARK  status: ('A' for Active; 'I' for Inactive)
REMARK    1  A    between atoms: C_6  and  C_8 
REMARK    2  A    between atoms: C_11  and  O_12 
REMARK    3  A    between atoms: C_17  and  O_18 
REMARK    4  A    between atoms: O_18  and  C_19 
REMARK    5  A    between atoms: C_22  and  O_23 
REMARK    6  A    between atoms: C_25  and  O_26 
REMARK    7  A    between atoms: C_28  and  O_29 
REMARK    8  A    between atoms: C_33  and  O_34 
ROOT
HETATM    1  O   UNK N   1      29.333  44.980  62.357  0.00  0.00    -0.287 OA
HETATM    2  C   UNK N   1      30.274  44.520  61.735  0.00  0.00     0.190 A 
HETATM    3  C   UNK N   1      31.564  44.445  62.305  0.00  0.00     0.081 A 
HETATM    4  C   UNK N   1      32.598  43.895  61.519  0.00  0.00     0.095 A 
HETATM    5  O   UNK N   1      32.366  43.497  60.275  0.00  0.00    -0.309 OA
HETATM    6  C   UNK N   1      31.165  43.544  59.706  0.00  0.00     0.090 A 
HETATM    7  C   UNK N   1      30.074  44.050  60.433  0.00  0.00     0.094 A 
HETATM    8  C   UNK N   1      33.880  43.744  62.041  0.00  0.00     0.075 A 
HETATM    9  C   UNK N   1      34.170  44.156  63.353  0.00  0.00     0.077 A 
HETATM   10  C   UNK N   1      33.162  44.742  64.125  0.00  0.00     0.074 A 
HETATM   11  C   UNK N   1      31.857  44.884  63.621  0.00  0.00     0.085 A 
ENDROOT
BRANCH   9  12
HETATM   12  O   UNK N   1      35.401  43.983  63.903  0.00  0.00    -0.318 OA
BRANCH  12  13
HETATM   13  C   UNK N   1      36.253  45.023  64.236  0.00  0.00     0.298 C 
HETATM   14  O   UNK N   1      36.119  46.026  63.238  0.00  0.00    -0.351 OA
HETATM   15  C   UNK N   1      36.916  47.159  63.533  0.00  0.00     0.152 C 
HETATM   16  C   UNK N   1      38.411  46.779  63.469  0.00  0.00     0.178 C 
HETATM   17  C   UNK N   1      36.578  48.264  62.530  0.00  0.00     0.042 C 
HETATM   18  C   UNK N   1      38.663  45.678  64.518  0.00  0.00     0.183 C 
HETATM   19  C   UNK N   1      37.699  44.491  64.281  0.00  0.00     0.205 C 
BRANCH  16  20
HETATM   20  O   UNK N   1      38.720  46.313  62.178  0.00  0.00    -0.390 OA
HETATM   21  H   UNK N   1      39.709  46.281  62.109  0.00  0.00     0.210 HD
ENDBRANCH  16  20
BRANCH  18  22
HETATM   22  O   UNK N   1      40.010  45.273  64.516  0.00  0.00    -0.390 OA
HETATM   23  H   UNK N   1      40.330  45.271  65.456  0.00  0.00     0.210 HD
ENDBRANCH  18  22
BRANCH  19  24
HETATM   24  O   UNK N   1      37.808  43.548  65.317  0.00  0.00    -0.388 OA
HETATM   25  H   UNK N   1      38.516  42.904  65.055  0.00  0.00     0.210 HD
ENDBRANCH  19  24
ENDBRANCH  12  13
ENDBRANCH   9  12
BRANCH  11  26
HETATM   26  O   UNK N   1      30.895  45.425  64.398  0.00  0.00    -0.360 OA
HETATM   27  H   UNK N   1      29.986  45.537  64.083  0.00  0.00     0.217 HD
ENDBRANCH  11  26
BRANCH   6  28
HETATM   28  C   UNK N   1      31.037  43.056  58.309  0.00  0.00    -0.002 A 
HETATM   29  C   UNK N   1      32.067  43.340  57.393  0.00  0.00     0.017 A 
HETATM   30  C   UNK N   1      31.982  42.899  56.071  0.00  0.00     0.037 A 
HETATM   31  C   UNK N   1      30.879  42.147  55.649  0.00  0.00     0.065 A 
HETATM   32  C   UNK N   1      29.857  41.847  56.556  0.00  0.00     0.037 A 
HETATM   33  C   UNK N   1      29.925  42.306  57.877  0.00  0.00     0.017 A 
BRANCH  31  34
HETATM   34  O   UNK N   1      30.792  41.709  54.378  0.00  0.00    -0.361 OA
HETATM   35  H   UNK N   1      29.963  41.364  54.015  0.00  0.00     0.217 HD
ENDBRANCH  31  34
ENDBRANCH   6  28
TORSDOF 8
ENDMDL
MODEL 5
REMARK VINA RESULT:      -5.5     18.490     21.175
REMARK  8 active torsions:
REMARK  status: ('A' for Active; 'I' for Inactive)
REMARK    1  A    between atoms: C_6  and  C_8 
REMARK    2  A    between atoms: C_11  and  O_12 
REMARK    3  A    between atoms: C_17  and  O_18 
REMARK    4  A    between atoms: O_18  and  C_19 
REMARK    5  A    between atoms: C_22  and  O_23 
REMARK    6  A    between atoms: C_25  and  O_26 
REMARK    7  A    between atoms: C_28  and  O_29 
REMARK    8  A    between atoms: C_33  and  O_34 
ROOT
HETATM    1  O   UNK N   1      31.984  42.964  64.461  0.00  0.00    -0.287 OA
HETATM    2  C   UNK N   1      32.623  43.322  63.488  0.00  0.00     0.190 A 
HETATM    3  C   UNK N   1      32.242  42.946  62.181  0.00  0.00     0.081 A 
HETATM    4  C   UNK N   1      33.033  43.406  61.108  0.00  0.00     0.095 A 
HETATM    5  O   UNK N   1      34.118  44.136  61.331  0.00  0.00    -0.309 OA
HETATM    6  C   UNK N   1      34.506  44.516  62.544  0.00  0.00     0.090 A 
HETATM    7  C   UNK N   1      33.754  44.126  63.665  0.00  0.00     0.094 A 
HETATM    8  C   UNK N   1      32.680  43.115  59.793  0.00  0.00     0.075 A 
HETATM    9  C   UNK N   1      31.541  42.341  59.514  0.00  0.00     0.077 A 
HETATM   10  C   UNK N   1      30.775  41.844  60.573  0.00  0.00     0.074 A 
HETATM   11  C   UNK N   1      31.105  42.145  61.906  0.00  0.00     0.085 A 
ENDROOT
BRANCH   9  12
HETATM   12  O   UNK N   1      31.150  42.076  58.239  0.00  0.00    -0.318 OA
BRANCH  12  13
HETATM   13  C   UNK N   1      29.835  41.854  57.863  0.00  0.00     0.298 C 
HETATM   14  O   UNK N   1      29.700  40.471  57.563  0.00  0.00    -0.351 OA
HETATM   15  C   UNK N   1      28.366  40.143  57.224  0.00  0.00     0.152 C 
HETATM   16  C   UNK N   1      27.972  40.842  55.906  0.00  0.00     0.178 C 
HETATM   17  C   UNK N   1      28.257  38.621  57.102  0.00  0.00     0.042 C 
HETATM   18  C   UNK N   1      28.095  42.363  56.124  0.00  0.00     0.183 C 
HETATM   19  C   UNK N   1      29.516  42.713  56.624  0.00  0.00     0.205 C 
BRANCH  16  20
HETATM   20  O   UNK N   1      28.833  40.418  54.876  0.00  0.00    -0.390 OA
HETATM   21  H   UNK N   1      29.403  39.699  55.251  0.00  0.00     0.210 HD
ENDBRANCH  16  20
BRANCH  18  22
HETATM   22  O   UNK N   1      27.755  43.073  54.958  0.00  0.00    -0.390 OA
HETATM   23  H   UNK N   1      28.497  43.701  54.755  0.00  0.00     0.210 HD
ENDBRANCH  18  22
BRANCH  19  24
HETATM   24  O   UNK N   1      29.599  44.072  56.975  0.00  0.00    -0.388 OA
HETATM   25  H   UNK N   1      28.697  44.464  56.845  0.00  0.00     0.210 HD
ENDBRANCH  19  24
ENDBRANCH  12  13
ENDBRANCH   9  12
BRANCH  11  26
HETATM   26  O   UNK N   1      30.330  41.678  62.908  0.00  0.00    -0.360 OA
HETATM   27  H   UNK N   1      29.370  41.806  62.915  0.00  0.00     0.217 HD
ENDBRANCH  11  26
BRANCH   6  28
HETATM   28  C   UNK N   1      35.734  45.344  62.655  0.00  0.00    -0.002 A 
HETATM   29  C   UNK N   1      35.608  46.709  62.975  0.00  0.00     0.017 A 
HETATM   30  C   UNK N   1      36.739  47.519  63.086  0.00  0.00     0.037 A 
HETATM   31  C   UNK N   1      38.016  46.975  62.904  0.00  0.00     0.065 A 
HETATM   32  C   UNK N   1      38.153  45.616  62.600  0.00  0.00     0.037 A 
HETATM   33  C   UNK N   1      37.021  44.803  62.464  0.00  0.00     0.017 A 
BRANCH  31  34
HETATM   34  O   UNK N   1      39.114  47.747  63.019  0.00  0.00    -0.361 OA
HETATM   35  H   UNK N   1      39.073  48.708  62.906  0.00  0.00     0.217 HD
ENDBRANCH  31  34
ENDBRANCH   6  28
TORSDOF 8
ENDMDL
MODEL 6
REMARK VINA RESULT:      -5.5      2.243      4.960
REMARK  8 active torsions:
REMARK  status: ('A' for Active; 'I' for Inactive)
REMARK    1  A    between atoms: C_6  and  C_8 
REMARK    2  A    between atoms: C_11  and  O_12 
REMARK    3  A    between atoms: C_17  and  O_18 
REMARK    4  A    between atoms: O_18  and  C_19 
REMARK    5  A    between atoms: C_22  and  O_23 
REMARK    6  A    between atoms: C_25  and  O_26 
REMARK    7  A    between atoms: C_28  and  O_29 
REMARK    8  A    between atoms: C_33  and  O_34 
ROOT
HETATM    1  O   UNK N   1      33.227  49.352  43.716  0.00  0.00    -0.287 OA
HETATM    2  C   UNK N   1      32.773  50.449  43.446  0.00  0.00     0.190 A 
HETATM    3  C   UNK N   1      31.824  50.615  42.413  0.00  0.00     0.081 A 
HETATM    4  C   UNK N   1      31.345  51.918  42.166  0.00  0.00     0.095 A 
HETATM    5  O   UNK N   1      31.802  52.952  42.860  0.00  0.00    -0.309 OA
HETATM    6  C   UNK N   1      32.689  52.835  43.844  0.00  0.00     0.090 A 
HETATM    7  C   UNK N   1      33.193  51.566  44.175  0.00  0.00     0.094 A 
HETATM    8  C   UNK N   1      30.369  52.141  41.197  0.00  0.00     0.075 A 
HETATM    9  C   UNK N   1      29.861  51.075  40.437  0.00  0.00     0.077 A 
HETATM   10  C   UNK N   1      30.361  49.786  40.645  0.00  0.00     0.074 A 
HETATM   11  C   UNK N   1      31.332  49.539  41.632  0.00  0.00     0.085 A 
ENDROOT
BRANCH   9  12
HETATM   12  O   UNK N   1      28.879  51.257  39.514  0.00  0.00    -0.318 OA
BRANCH  12  13
HETATM   13  C   UNK N   1      27.575  51.604  39.829  0.00  0.00     0.298 C 
HETATM   14  O   UNK N   1      26.768  50.446  39.660  0.00  0.00    -0.351 OA
HETATM   15  C   UNK N   1      25.422  50.696  40.018  0.00  0.00     0.152 C 
HETATM   16  C   UNK N   1      24.800  51.720  39.044  0.00  0.00     0.178 C 
HETATM   17  C   UNK N   1      24.659  49.370  39.995  0.00  0.00     0.042 C 
HETATM   18  C   UNK N   1      25.618  53.023  39.146  0.00  0.00     0.183 C 
HETATM   19  C   UNK N   1      27.114  52.731  38.885  0.00  0.00     0.205 C 
BRANCH  16  20
HETATM   20  O   UNK N   1      24.847  51.207  37.735  0.00  0.00    -0.390 OA
HETATM   21  H   UNK N   1      24.438  50.304  37.761  0.00  0.00     0.210 HD
ENDBRANCH  16  20
BRANCH  18  22
HETATM   22  O   UNK N   1      25.113  54.008  38.278  0.00  0.00    -0.390 OA
HETATM   23  H   UNK N   1      25.526  53.872  37.385  0.00  0.00     0.210 HD
ENDBRANCH  18  22
BRANCH  19  24
HETATM   24  O   UNK N   1      27.893  53.877  39.124  0.00  0.00    -0.388 OA
HETATM   25  H   UNK N   1      27.555  54.292  39.959  0.00  0.00     0.210 HD
ENDBRANCH  19  24
ENDBRANCH  12  13
ENDBRANCH   9  12
BRANCH  11  26
HETATM   26  O   UNK N   1      31.775  48.280  41.833  0.00  0.00    -0.360 OA
HETATM   27  H   UNK N   1      32.286  47.805  41.162  0.00  0.00     0.217 HD
ENDBRANCH  11  26
BRANCH   6  28
HETATM   28  C   UNK N   1      33.110  54.072  44.551  0.00  0.00    -0.002 A 
HETATM   29  C   UNK N   1      32.332  54.537  45.629  0.00  0.00     0.017 A 
HETATM   30  C   UNK N   1      32.694  55.695  46.317  0.00  0.00     0.037 A 
HETATM   31  C   UNK N   1      33.853  56.395  45.957  0.00  0.00     0.065 A 
HETATM   32  C   UNK N   1      34.640  55.933  44.897  0.00  0.00     0.037 A 
HETATM   33  C   UNK N   1      34.269  54.784  44.188  0.00  0.00     0.017 A 
BRANCH  31  34
HETATM   34  O   UNK N   1      34.216  57.510  46.622  0.00  0.00    -0.361 OA
HETATM   35  H   UNK N   1      33.983  57.644  47.553  0.00  0.00     0.217 HD
ENDBRANCH  31  34
ENDBRANCH   6  28
TORSDOF 8
ENDMDL
MODEL 7
REMARK VINA RESULT:      -5.5     23.802     26.480
REMARK  8 active torsions:
REMARK  status: ('A' for Active; 'I' for Inactive)
REMARK    1  A    between atoms: C_6  and  C_8 
REMARK    2  A    between atoms: C_11  and  O_12 
REMARK    3  A    between atoms: C_17  and  O_18 
REMARK    4  A    between atoms: O_18  and  C_19 
REMARK    5  A    between atoms: C_22  and  O_23 
REMARK    6  A    between atoms: C_25  and  O_26 
REMARK    7  A    between atoms: C_28  and  O_29 
REMARK    8  A    between atoms: C_33  and  O_34 
ROOT
HETATM    1  O   UNK N   1      51.800  46.987  57.634  0.00  0.00    -0.287 OA
HETATM    2  C   UNK N   1      51.437  48.051  58.103  0.00  0.00     0.190 A 
HETATM    3  C   UNK N   1      52.016  49.270  57.689  0.00  0.00     0.081 A 
HETATM    4  C   UNK N   1      51.536  50.458  58.278  0.00  0.00     0.095 A 
HETATM    5  O   UNK N   1      50.598  50.419  59.216  0.00  0.00    -0.309 OA
HETATM    6  C   UNK N   1      50.024  49.292  59.627  0.00  0.00     0.090 A 
HETATM    7  C   UNK N   1      50.423  48.067  59.067  0.00  0.00     0.094 A 
HETATM    8  C   UNK N   1      52.027  51.697  57.875  0.00  0.00     0.075 A 
HETATM    9  C   UNK N   1      53.024  51.783  56.889  0.00  0.00     0.077 A 
HETATM   10  C   UNK N   1      53.537  50.609  56.329  0.00  0.00     0.074 A 
HETATM   11  C   UNK N   1      53.038  49.350  56.710  0.00  0.00     0.085 A 
ENDROOT
BRANCH   9  12
HETATM   12  O   UNK N   1      53.493  52.980  56.446  0.00  0.00    -0.318 OA
BRANCH  12  13
HETATM   13  C   UNK N   1      52.712  53.927  55.802  0.00  0.00     0.298 C 
HETATM   14  O   UNK N   1      51.668  54.301  56.690  0.00  0.00    -0.351 OA
HETATM   15  C   UNK N   1      50.852  55.314  56.131  0.00  0.00     0.152 C 
HETATM   16  C   UNK N   1      50.102  54.764  54.899  0.00  0.00     0.178 C 
HETATM   17  C   UNK N   1      49.877  55.799  57.207  0.00  0.00     0.042 C 
HETATM   18  C   UNK N   1      51.157  54.317  53.868  0.00  0.00     0.183 C 
HETATM   19  C   UNK N   1      52.135  53.308  54.514  0.00  0.00     0.205 C 
BRANCH  16  20
HETATM   20  O   UNK N   1      49.298  53.677  55.288  0.00  0.00    -0.390 OA
HETATM   21  H   UNK N   1      49.844  52.857  55.178  0.00  0.00     0.210 HD
ENDBRANCH  16  20
BRANCH  18  22
HETATM   22  O   UNK N   1      50.548  53.796  52.712  0.00  0.00    -0.390 OA
HETATM   23  H   UNK N   1      50.183  54.557  52.188  0.00  0.00     0.210 HD
ENDBRANCH  18  22
BRANCH  19  24
HETATM   24  O   UNK N   1      53.191  53.008  53.636  0.00  0.00    -0.388 OA
HETATM   25  H   UNK N   1      53.944  52.671  54.187  0.00  0.00     0.210 HD
ENDBRANCH  19  24
ENDBRANCH  12  13
ENDBRANCH   9  12
BRANCH  11  26
HETATM   26  O   UNK N   1      53.530  48.234  56.132  0.00  0.00    -0.360 OA
HETATM   27  H   UNK N   1      53.036  47.749  55.455  0.00  0.00     0.217 HD
ENDBRANCH  11  26
BRANCH   6  28
HETATM   28  C   UNK N   1      48.976  49.388  60.676  0.00  0.00    -0.002 A 
HETATM   29  C   UNK N   1      47.626  49.250  60.302  0.00  0.00     0.017 A 
HETATM   30  C   UNK N   1      46.613  49.335  61.258  0.00  0.00     0.037 A 
HETATM   31  C   UNK N   1      46.933  49.534  62.607  0.00  0.00     0.065 A 
HETATM   32  C   UNK N   1      48.273  49.658  62.990  0.00  0.00     0.037 A 
HETATM   33  C   UNK N   1      49.292  49.597  62.032  0.00  0.00     0.017 A 
BRANCH  31  34
HETATM   34  O   UNK N   1      45.963  49.608  63.540  0.00  0.00    -0.361 OA
HETATM   35  H   UNK N   1      46.109  50.046  64.391  0.00  0.00     0.217 HD
ENDBRANCH  31  34
ENDBRANCH   6  28
TORSDOF 8
ENDMDL
MODEL 8
REMARK VINA RESULT:      -5.5     18.104     22.080
REMARK  8 active torsions:
REMARK  status: ('A' for Active; 'I' for Inactive)
REMARK    1  A    between atoms: C_6  and  C_8 
REMARK    2  A    between atoms: C_11  and  O_12 
REMARK    3  A    between atoms: C_17  and  O_18 
REMARK    4  A    between atoms: O_18  and  C_19 
REMARK    5  A    between atoms: C_22  and  O_23 
REMARK    6  A    between atoms: C_25  and  O_26 
REMARK    7  A    between atoms: C_28  and  O_29 
REMARK    8  A    between atoms: C_33  and  O_34 
ROOT
HETATM    1  O   UNK N   1      29.585  41.831  61.610  0.00  0.00    -0.287 OA
HETATM    2  C   UNK N   1      30.341  42.133  60.705  0.00  0.00     0.190 A 
HETATM    3  C   UNK N   1      31.622  42.666  60.966  0.00  0.00     0.081 A 
HETATM    4  C   UNK N   1      32.438  42.985  59.861  0.00  0.00     0.095 A 
HETATM    5  O   UNK N   1      31.996  42.821  58.621  0.00  0.00    -0.309 OA
HETATM    6  C   UNK N   1      30.800  42.315  58.335  0.00  0.00     0.090 A 
HETATM    7  C   UNK N   1      29.937  41.942  59.379  0.00  0.00     0.094 A 
HETATM    8  C   UNK N   1      33.732  43.464  60.051  0.00  0.00     0.075 A 
HETATM    9  C   UNK N   1      34.238  43.657  61.348  0.00  0.00     0.077 A 
HETATM   10  C   UNK N   1      33.422  43.385  62.450  0.00  0.00     0.074 A 
HETATM   11  C   UNK N   1      32.120  42.881  62.276  0.00  0.00     0.085 A 
ENDROOT
BRANCH   9  12
HETATM   12  O   UNK N   1      35.511  44.084  61.564  0.00  0.00    -0.318 OA
BRANCH  12  13
HETATM   13  C   UNK N   1      35.870  44.974  62.563  0.00  0.00     0.298 C 
HETATM   14  O   UNK N   1      34.894  46.007  62.591  0.00  0.00    -0.351 OA
HETATM   15  C   UNK N   1      35.153  46.935  63.628  0.00  0.00     0.152 C 
HETATM   16  C   UNK N   1      36.471  47.687  63.344  0.00  0.00     0.178 C 
HETATM   17  C   UNK N   1      33.969  47.901  63.720  0.00  0.00     0.042 C 
HETATM   18  C   UNK N   1      37.604  46.643  63.284  0.00  0.00     0.183 C 
HETATM   19  C   UNK N   1      37.263  45.550  62.243  0.00  0.00     0.205 C 
BRANCH  16  20
HETATM   20  O   UNK N   1      36.363  48.372  62.120  0.00  0.00    -0.390 OA
HETATM   21  H   UNK N   1      35.952  49.253  62.315  0.00  0.00     0.210 HD
ENDBRANCH  16  20
BRANCH  18  22
HETATM   22  O   UNK N   1      38.843  47.254  63.021  0.00  0.00    -0.390 OA
HETATM   23  H   UNK N   1      39.357  47.283  63.871  0.00  0.00     0.210 HD
ENDBRANCH  18  22
BRANCH  19  24
HETATM   24  O   UNK N   1      38.210  44.512  62.285  0.00  0.00    -0.388 OA
HETATM   25  H   UNK N   1      38.169  44.042  61.413  0.00  0.00     0.210 HD
ENDBRANCH  19  24
ENDBRANCH  12  13
ENDBRANCH   9  12
BRANCH  11  26
HETATM   26  O   UNK N   1      31.364  42.597  63.357  0.00  0.00    -0.360 OA
HETATM   27  H   UNK N   1      31.442  41.755  63.829  0.00  0.00     0.217 HD
ENDBRANCH  11  26
BRANCH   6  28
HETATM   28  C   UNK N   1      30.430  42.172  56.903  0.00  0.00    -0.002 A 
HETATM   29  C   UNK N   1      31.453  42.140  55.936  0.00  0.00     0.017 A 
HETATM   30  C   UNK N   1      31.145  42.008  54.582  0.00  0.00     0.037 A 
HETATM   31  C   UNK N   1      29.812  41.880  54.172  0.00  0.00     0.065 A 
HETATM   32  C   UNK N   1      28.789  41.896  55.126  0.00  0.00     0.037 A 
HETATM   33  C   UNK N   1      29.091  42.051  56.484  0.00  0.00     0.017 A 
BRANCH  31  34
HETATM   34  O   UNK N   1      29.505  41.742  52.867  0.00  0.00    -0.361 OA
HETATM   35  H   UNK N   1      28.875  41.073  52.561  0.00  0.00     0.217 HD
ENDBRANCH  31  34
ENDBRANCH   6  28
TORSDOF 8
ENDMDL
MODEL 9
REMARK VINA RESULT:      -5.3      2.328      4.957
REMARK  8 active torsions:
REMARK  status: ('A' for Active; 'I' for Inactive)
REMARK    1  A    between atoms: C_6  and  C_8 
REMARK    2  A    between atoms: C_11  and  O_12 
REMARK    3  A    between atoms: C_17  and  O_18 
REMARK    4  A    between atoms: O_18  and  C_19 
REMARK    5  A    between atoms: C_22  and  O_23 
REMARK    6  A    between atoms: C_25  and  O_26 
REMARK    7  A    between atoms: C_28  and  O_29 
REMARK    8  A    between atoms: C_33  and  O_34 
ROOT
HETATM    1  O   UNK N   1      33.071  49.532  43.460  0.00  0.00    -0.287 OA
HETATM    2  C   UNK N   1      32.608  50.642  43.264  0.00  0.00     0.190 A 
HETATM    3  C   UNK N   1      31.636  50.865  42.265  0.00  0.00     0.081 A 
HETATM    4  C   UNK N   1      31.149  52.179  42.105  0.00  0.00     0.095 A 
HETATM    5  O   UNK N   1      31.619  53.172  42.849  0.00  0.00    -0.309 OA
HETATM    6  C   UNK N   1      32.528  53.000  43.804  0.00  0.00     0.090 A 
HETATM    7  C   UNK N   1      33.043  51.716  44.048  0.00  0.00     0.094 A 
HETATM    8  C   UNK N   1      30.151  52.455  41.174  0.00  0.00     0.075 A 
HETATM    9  C   UNK N   1      29.628  51.433  40.364  0.00  0.00     0.077 A 
HETATM   10  C   UNK N   1      30.135  50.136  40.484  0.00  0.00     0.074 A 
HETATM   11  C   UNK N   1      31.128  49.835  41.434  0.00  0.00     0.085 A 
ENDROOT
BRANCH   9  12
HETATM   12  O   UNK N   1      28.624  51.666  39.476  0.00  0.00    -0.318 OA
BRANCH  12  13
HETATM   13  C   UNK N   1      27.889  52.838  39.429  0.00  0.00     0.298 C 
HETATM   14  O   UNK N   1      28.757  53.875  38.990  0.00  0.00    -0.351 OA
HETATM   15  C   UNK N   1      28.069  55.105  38.857  0.00  0.00     0.152 C 
HETATM   16  C   UNK N   1      27.590  55.592  40.241  0.00  0.00     0.178 C 
HETATM   17  C   UNK N   1      29.011  56.119  38.205  0.00  0.00     0.042 C 
HETATM   18  C   UNK N   1      26.639  54.522  40.813  0.00  0.00     0.183 C 
HETATM   19  C   UNK N   1      27.343  53.145  40.837  0.00  0.00     0.205 C 
BRANCH  16  20
HETATM   20  O   UNK N   1      28.701  55.768  41.085  0.00  0.00    -0.390 OA
HETATM   21  H   UNK N   1      28.737  56.730  41.323  0.00  0.00     0.210 HD
ENDBRANCH  16  20
BRANCH  18  22
HETATM   22  O   UNK N   1      26.161  54.893  42.083  0.00  0.00    -0.390 OA
HETATM   23  H   UNK N   1      25.226  55.212  41.978  0.00  0.00     0.210 HD
ENDBRANCH  18  22
BRANCH  19  24
HETATM   24  O   UNK N   1      26.443  52.132  41.210  0.00  0.00    -0.388 OA
HETATM   25  H   UNK N   1      26.934  51.506  41.801  0.00  0.00     0.210 HD
ENDBRANCH  19  24
ENDBRANCH  12  13
ENDBRANCH   9  12
BRANCH  11  26
HETATM   26  O   UNK N   1      31.579  48.568  41.551  0.00  0.00    -0.360 OA
HETATM   27  H   UNK N   1      32.525  48.363  41.590  0.00  0.00     0.217 HD
ENDBRANCH  11  26
BRANCH   6  28
HETATM   28  C   UNK N   1      32.962  54.194  44.573  0.00  0.00    -0.002 A 
HETATM   29  C   UNK N   1      32.223  54.578  45.708  0.00  0.00     0.017 A 
HETATM   30  C   UNK N   1      32.598  55.695  46.455  0.00  0.00     0.037 A 
HETATM   31  C   UNK N   1      33.734  56.433  46.097  0.00  0.00     0.065 A 
HETATM   32  C   UNK N   1      34.483  56.051  44.979  0.00  0.00     0.037 A 
HETATM   33  C   UNK N   1      34.098  54.945  44.212  0.00  0.00     0.017 A 
BRANCH  31  34
HETATM   34  O   UNK N   1      34.110  57.507  46.818  0.00  0.00    -0.361 OA
HETATM   35  H   UNK N   1      34.007  57.534  47.781  0.00  0.00     0.217 HD
ENDBRANCH  31  34
ENDBRANCH   6  28
TORSDOF 8
ENDMDL
