MODEL 1
REMARK VINA RESULT:      -7.5      0.000      0.000
REMARK  4 active torsions:
REMARK  status: ('A' for Active; 'I' for Inactive)
REMARK    1  A    between atoms: C_8  and  C_9 
REMARK    2  A    between atoms: C_9  and  C_10 
REMARK       I    between atoms: N_17  and  C_19 
REMARK    3  A    between atoms: C_19  and  O_21 
REMARK    4  A    between atoms: O_21  and  C_22 
ROOT
HETATM    1  C   UNK N   1      41.254  46.573  47.314  0.00  0.00    -0.027 A 
HETATM    2  C   UNK N   1      41.541  45.527  46.455  0.00  0.00    -0.001 A 
HETATM    3  C   UNK N   1      41.417  44.364  47.174  0.00  0.00     0.054 A 
HETATM    4  C   UNK N   1      41.643  43.117  46.570  0.00  0.00     0.031 A 
HETATM    5  C   UNK N   1      41.998  43.091  45.209  0.00  0.00     0.002 A 
HETATM    6  C   UNK N   1      42.122  44.291  44.479  0.00  0.00     0.001 A 
HETATM    7  C   UNK N   1      41.891  45.526  45.104  0.00  0.00     0.014 A 
HETATM    8  N   UNK N   1      41.067  44.653  48.456  0.00  0.00    -0.268 N 
HETATM    9  C   UNK N   1      40.963  46.001  48.539  0.00  0.00     0.110 A 
HETATM   10  C   UNK N   1      40.847  43.799  49.511  0.00  0.00     0.372 C 
HETATM   11  O   UNK N   1      40.961  42.594  49.368  0.00  0.00    -0.238 OA
ENDROOT
BRANCH   1  12
HETATM   12  C   UNK N   1      41.279  48.034  46.977  0.00  0.00     0.075 C 
BRANCH  12  13
HETATM   13  C   UNK N   1      40.697  48.330  45.581  0.00  0.00     0.181 C 
HETATM   14  C   UNK N   1      39.227  47.986  45.375  0.00  0.00     0.243 C 
HETATM   15  O   UNK N   1      38.572  47.401  46.225  0.00  0.00    -0.271 OA
HETATM   16  N   UNK N   1      38.641  48.451  44.231  0.00  0.00    -0.337 N 
HETATM   17  C   UNK N   1      39.404  49.249  43.297  0.00  0.00     0.179 C 
HETATM   18  C   UNK N   1      37.239  48.358  43.909  0.00  0.00     0.127 C 
HETATM   19  C   UNK N   1      40.269  50.207  44.097  0.00  0.00     0.241 C 
HETATM   20  C   UNK N   1      38.309  49.934  42.470  0.00  0.00     0.037 C 
HETATM   21  O   UNK N   1      40.349  51.390  43.805  0.00  0.00    -0.271 OA
HETATM   22  N   UNK N   1      40.852  49.738  45.237  0.00  0.00    -0.346 N 
HETATM   23  H   UNK N   1      41.360  50.385  45.860  0.00  0.00     0.163 HD
HETATM   24  C   UNK N   1      37.211  48.877  42.466  0.00  0.00     0.022 C 
ENDBRANCH  12  13
ENDBRANCH   1  12
BRANCH  10  25
HETATM   25  O   UNK N   1      40.499  44.327  50.720  0.00  0.00    -0.293 OA
BRANCH  25  26
HETATM   26  C   UNK N   1      41.159  44.168  51.932  0.00  0.00     0.061 C 
HETATM   27  C   UNK N   1      41.976  42.861  51.929  0.00  0.00     0.046 C 
HETATM   28  C   UNK N   1      40.085  44.075  53.027  0.00  0.00     0.046 C 
HETATM   29  C   UNK N   1      42.058  45.387  52.226  0.00  0.00     0.046 C 
ENDBRANCH  25  26
ENDBRANCH  10  25
TORSDOF 4
ENDMDL
MODEL 2
REMARK VINA RESULT:      -7.4      1.075      2.038
REMARK  4 active torsions:
REMARK  status: ('A' for Active; 'I' for Inactive)
REMARK    1  A    between atoms: C_8  and  C_9 
REMARK    2  A    between atoms: C_9  and  C_10 
REMARK       I    between atoms: N_17  and  C_19 
REMARK    3  A    between atoms: C_19  and  O_21 
REMARK    4  A    between atoms: O_21  and  C_22 
ROOT
HETATM    1  C   UNK N   1      41.593  46.430  47.776  0.00  0.00    -0.027 A 
HETATM    2  C   UNK N   1      41.787  45.323  46.969  0.00  0.00    -0.001 A 
HETATM    3  C   UNK N   1      41.569  44.211  47.744  0.00  0.00     0.054 A 
HETATM    4  C   UNK N   1      41.687  42.921  47.202  0.00  0.00     0.031 A 
HETATM    5  C   UNK N   1      42.033  42.799  45.842  0.00  0.00     0.002 A 
HETATM    6  C   UNK N   1      42.254  43.948  45.055  0.00  0.00     0.001 A 
HETATM    7  C   UNK N   1      42.130  45.227  45.619  0.00  0.00     0.014 A 
HETATM    8  N   UNK N   1      41.250  44.589  49.010  0.00  0.00    -0.268 N 
HETATM    9  C   UNK N   1      41.260  45.944  49.028  0.00  0.00     0.110 A 
HETATM   10  C   UNK N   1      40.965  43.809  50.106  0.00  0.00     0.372 C 
HETATM   11  O   UNK N   1      40.977  42.593  50.021  0.00  0.00    -0.238 OA
ENDROOT
BRANCH   1  12
HETATM   12  C   UNK N   1      41.738  47.865  47.369  0.00  0.00     0.075 C 
BRANCH  12  13
HETATM   13  C   UNK N   1      40.520  48.383  46.580  0.00  0.00     0.181 C 
HETATM   14  C   UNK N   1      40.821  49.154  45.300  0.00  0.00     0.243 C 
HETATM   15  O   UNK N   1      41.961  49.449  44.973  0.00  0.00    -0.271 OA
HETATM   16  N   UNK N   1      39.762  49.416  44.477  0.00  0.00    -0.337 N 
HETATM   17  C   UNK N   1      38.438  48.948  44.824  0.00  0.00     0.179 C 
HETATM   18  C   UNK N   1      39.846  50.005  43.164  0.00  0.00     0.127 C 
HETATM   19  C   UNK N   1      38.573  47.545  45.391  0.00  0.00     0.241 C 
HETATM   20  C   UNK N   1      37.698  49.014  43.482  0.00  0.00     0.037 C 
HETATM   21  O   UNK N   1      37.834  46.640  45.035  0.00  0.00    -0.271 OA
HETATM   22  N   UNK N   1      39.630  47.288  46.213  0.00  0.00    -0.346 N 
HETATM   23  H   UNK N   1      39.812  46.325  46.533  0.00  0.00     0.163 HD
HETATM   24  C   UNK N   1      38.367  50.208  42.813  0.00  0.00     0.022 C 
ENDBRANCH  12  13
ENDBRANCH   1  12
BRANCH  10  25
HETATM   25  O   UNK N   1      40.667  44.422  51.288  0.00  0.00    -0.293 OA
BRANCH  25  26
HETATM   26  C   UNK N   1      40.997  43.993  52.568  0.00  0.00     0.061 C 
HETATM   27  C   UNK N   1      39.744  43.466  53.294  0.00  0.00     0.046 C 
HETATM   28  C   UNK N   1      41.534  45.213  53.332  0.00  0.00     0.046 C 
HETATM   29  C   UNK N   1      42.103  42.918  52.514  0.00  0.00     0.046 C 
ENDBRANCH  25  26
ENDBRANCH  10  25
TORSDOF 4
ENDMDL
MODEL 3
REMARK VINA RESULT:      -7.1      1.782      7.962
REMARK  4 active torsions:
REMARK  status: ('A' for Active; 'I' for Inactive)
REMARK    1  A    between atoms: C_8  and  C_9 
REMARK    2  A    between atoms: C_9  and  C_10 
REMARK       I    between atoms: N_17  and  C_19 
REMARK    3  A    between atoms: C_19  and  O_21 
REMARK    4  A    between atoms: O_21  and  C_22 
ROOT
HETATM    1  C   UNK N   1      40.246  46.775  46.516  0.00  0.00    -0.027 A 
HETATM    2  C   UNK N   1      41.398  47.536  46.420  0.00  0.00    -0.001 A 
HETATM    3  C   UNK N   1      41.100  48.631  45.648  0.00  0.00     0.054 A 
HETATM    4  C   UNK N   1      42.075  49.603  45.370  0.00  0.00     0.031 A 
HETATM    5  C   UNK N   1      43.364  49.425  45.907  0.00  0.00     0.002 A 
HETATM    6  C   UNK N   1      43.660  48.298  46.699  0.00  0.00     0.001 A 
HETATM    7  C   UNK N   1      42.669  47.339  46.963  0.00  0.00     0.014 A 
HETATM    8  N   UNK N   1      39.800  48.575  45.254  0.00  0.00    -0.268 N 
HETATM    9  C   UNK N   1      39.278  47.444  45.788  0.00  0.00     0.110 A 
HETATM   10  C   UNK N   1      39.090  49.452  44.469  0.00  0.00     0.372 C 
HETATM   11  O   UNK N   1      39.623  50.451  44.017  0.00  0.00    -0.238 OA
ENDROOT
BRANCH   1  12
HETATM   12  C   UNK N   1      40.096  45.475  47.247  0.00  0.00     0.075 C 
BRANCH  12  13
HETATM   13  C   UNK N   1      40.395  45.605  48.753  0.00  0.00     0.181 C 
HETATM   14  C   UNK N   1      39.900  44.470  49.641  0.00  0.00     0.243 C 
HETATM   15  O   UNK N   1      39.203  43.564  49.208  0.00  0.00    -0.271 OA
HETATM   16  N   UNK N   1      40.354  44.454  50.930  0.00  0.00    -0.337 N 
HETATM   17  C   UNK N   1      41.278  45.468  51.387  0.00  0.00     0.179 C 
HETATM   18  C   UNK N   1      40.121  43.403  51.888  0.00  0.00     0.127 C 
HETATM   19  C   UNK N   1      42.285  45.717  50.277  0.00  0.00     0.241 C 
HETATM   20  C   UNK N   1      41.878  44.831  52.647  0.00  0.00     0.037 C 
HETATM   21  O   UNK N   1      43.483  45.783  50.507  0.00  0.00    -0.271 OA
HETATM   22  N   UNK N   1      41.828  45.733  48.993  0.00  0.00    -0.346 N 
HETATM   23  H   UNK N   1      42.494  45.795  48.209  0.00  0.00     0.163 HD
HETATM   24  C   UNK N   1      40.706  44.009  53.170  0.00  0.00     0.022 C 
ENDBRANCH  12  13
ENDBRANCH   1  12
BRANCH  10  25
HETATM   25  O   UNK N   1      37.778  49.183  44.207  0.00  0.00    -0.293 OA
BRANCH  25  26
HETATM   26  C   UNK N   1      37.115  49.317  42.993  0.00  0.00     0.061 C 
HETATM   27  C   UNK N   1      35.948  50.315  43.129  0.00  0.00     0.046 C 
HETATM   28  C   UNK N   1      36.544  47.937  42.632  0.00  0.00     0.046 C 
HETATM   29  C   UNK N   1      38.094  49.753  41.883  0.00  0.00     0.046 C 
ENDBRANCH  25  26
ENDBRANCH  10  25
TORSDOF 4
ENDMDL
MODEL 4
REMARK VINA RESULT:      -6.9     13.697     16.681
REMARK  4 active torsions:
REMARK  status: ('A' for Active; 'I' for Inactive)
REMARK    1  A    between atoms: C_8  and  C_9 
REMARK    2  A    between atoms: C_9  and  C_10 
REMARK       I    between atoms: N_17  and  C_19 
REMARK    3  A    between atoms: C_19  and  O_21 
REMARK    4  A    between atoms: O_21  and  C_22 
ROOT
HETATM    1  C   UNK N   1      28.366  40.725  56.845  0.00  0.00    -0.027 A 
HETATM    2  C   UNK N   1      28.870  39.462  56.593  0.00  0.00    -0.001 A 
HETATM    3  C   UNK N   1      28.665  39.200  55.261  0.00  0.00     0.054 A 
HETATM    4  C   UNK N   1      29.077  37.983  54.695  0.00  0.00     0.031 A 
HETATM    5  C   UNK N   1      29.708  37.041  55.529  0.00  0.00     0.002 A 
HETATM    6  C   UNK N   1      29.915  37.320  56.895  0.00  0.00     0.001 A 
HETATM    7  C   UNK N   1      29.494  38.543  57.439  0.00  0.00     0.014 A 
HETATM    8  N   UNK N   1      28.043  40.258  54.676  0.00  0.00    -0.268 N 
HETATM    9  C   UNK N   1      27.865  41.191  55.643  0.00  0.00     0.110 A 
HETATM   10  C   UNK N   1      27.642  40.419  53.371  0.00  0.00     0.372 C 
HETATM   11  O   UNK N   1      27.831  39.536  52.551  0.00  0.00    -0.238 OA
ENDROOT
BRANCH   1  12
HETATM   12  C   UNK N   1      28.351  41.430  58.168  0.00  0.00     0.075 C 
BRANCH  12  13
HETATM   13  C   UNK N   1      29.670  42.171  58.459  0.00  0.00     0.181 C 
HETATM   14  C   UNK N   1      30.615  41.505  59.452  0.00  0.00     0.243 C 
HETATM   15  O   UNK N   1      30.300  40.501  60.074  0.00  0.00    -0.271 OA
HETATM   16  N   UNK N   1      31.876  42.024  59.544  0.00  0.00    -0.337 N 
HETATM   17  C   UNK N   1      32.267  43.136  58.707  0.00  0.00     0.179 C 
HETATM   18  C   UNK N   1      32.959  41.464  60.313  0.00  0.00     0.127 C 
HETATM   19  C   UNK N   1      31.689  42.904  57.322  0.00  0.00     0.241 C 
HETATM   20  C   UNK N   1      33.798  43.078  58.766  0.00  0.00     0.037 C 
HETATM   21  O   UNK N   1      32.364  43.059  56.316  0.00  0.00    -0.271 OA
HETATM   22  N   UNK N   1      30.431  42.387  57.234  0.00  0.00    -0.346 N 
HETATM   23  H   UNK N   1      30.045  42.119  56.316  0.00  0.00     0.163 HD
HETATM   24  C   UNK N   1      34.038  42.546  60.174  0.00  0.00     0.022 C 
ENDBRANCH  12  13
ENDBRANCH   1  12
BRANCH  10  25
HETATM   25  O   UNK N   1      27.032  41.585  53.010  0.00  0.00    -0.293 OA
BRANCH  25  26
HETATM   26  C   UNK N   1      27.467  42.511  52.071  0.00  0.00     0.061 C 
HETATM   27  C   UNK N   1      29.007  42.573  52.056  0.00  0.00     0.046 C 
HETATM   28  C   UNK N   1      26.922  43.883  52.498  0.00  0.00     0.046 C 
HETATM   29  C   UNK N   1      26.909  42.171  50.673  0.00  0.00     0.046 C 
ENDBRANCH  25  26
ENDBRANCH  10  25
TORSDOF 4
ENDMDL
MODEL 5
REMARK VINA RESULT:      -6.7     14.028     15.356
REMARK  4 active torsions:
REMARK  status: ('A' for Active; 'I' for Inactive)
REMARK    1  A    between atoms: C_8  and  C_9 
REMARK    2  A    between atoms: C_9  and  C_10 
REMARK       I    between atoms: N_17  and  C_19 
REMARK    3  A    between atoms: C_19  and  O_21 
REMARK    4  A    between atoms: O_21  and  C_22 
ROOT
HETATM    1  C   UNK N   1      29.562  41.667  54.654  0.00  0.00    -0.027 A 
HETATM    2  C   UNK N   1      29.350  40.450  55.278  0.00  0.00    -0.001 A 
HETATM    3  C   UNK N   1      29.307  40.688  56.629  0.00  0.00     0.054 A 
HETATM    4  C   UNK N   1      29.099  39.638  57.538  0.00  0.00     0.031 A 
HETATM    5  C   UNK N   1      28.933  38.337  57.026  0.00  0.00     0.002 A 
HETATM    6  C   UNK N   1      28.977  38.104  55.637  0.00  0.00     0.001 A 
HETATM    7  C   UNK N   1      29.187  39.169  54.747  0.00  0.00     0.014 A 
HETATM    8  N   UNK N   1      29.492  42.013  56.868  0.00  0.00    -0.268 N 
HETATM    9  C   UNK N   1      29.642  42.611  55.661  0.00  0.00     0.110 A 
HETATM   10  C   UNK N   1      29.532  42.684  58.067  0.00  0.00     0.372 C 
HETATM   11  O   UNK N   1      29.392  42.083  59.119  0.00  0.00    -0.238 OA
ENDROOT
BRANCH   1  12
HETATM   12  C   UNK N   1      29.698  41.899  53.179  0.00  0.00     0.075 C 
BRANCH  12  13
HETATM   13  C   UNK N   1      28.556  42.760  52.607  0.00  0.00     0.181 C 
HETATM   14  C   UNK N   1      27.820  42.191  51.400  0.00  0.00     0.243 C 
HETATM   15  O   UNK N   1      28.186  41.168  50.839  0.00  0.00    -0.271 OA
HETATM   16  N   UNK N   1      26.667  42.823  51.027  0.00  0.00    -0.337 N 
HETATM   17  C   UNK N   1      26.186  43.960  51.782  0.00  0.00     0.179 C 
HETATM   18  C   UNK N   1      25.753  42.371  50.009  0.00  0.00     0.127 C 
HETATM   19  C   UNK N   1      26.395  43.664  53.257  0.00  0.00     0.241 C 
HETATM   20  C   UNK N   1      24.713  44.041  51.361  0.00  0.00     0.037 C 
HETATM   21  O   UNK N   1      25.516  43.870  54.079  0.00  0.00    -0.271 OA
HETATM   22  N   UNK N   1      27.547  43.034  53.624  0.00  0.00    -0.346 N 
HETATM   23  H   UNK N   1      27.678  42.723  54.599  0.00  0.00     0.163 HD
HETATM   24  C   UNK N   1      24.770  43.545  49.921  0.00  0.00     0.022 C 
ENDBRANCH  12  13
ENDBRANCH   1  12
BRANCH  10  25
HETATM   25  O   UNK N   1      29.730  44.034  58.058  0.00  0.00    -0.293 OA
BRANCH  25  26
HETATM   26  C   UNK N   1      30.856  44.725  58.486  0.00  0.00     0.061 C 
HETATM   27  C   UNK N   1      30.761  45.020  59.996  0.00  0.00     0.046 C 
HETATM   28  C   UNK N   1      30.888  46.060  57.724  0.00  0.00     0.046 C 
HETATM   29  C   UNK N   1      32.139  43.935  58.151  0.00  0.00     0.046 C 
ENDBRANCH  25  26
ENDBRANCH  10  25
TORSDOF 4
ENDMDL
MODEL 6
REMARK VINA RESULT:      -6.6     13.815     16.483
REMARK  4 active torsions:
REMARK  status: ('A' for Active; 'I' for Inactive)
REMARK    1  A    between atoms: C_8  and  C_9 
REMARK    2  A    between atoms: C_9  and  C_10 
REMARK       I    between atoms: N_17  and  C_19 
REMARK    3  A    between atoms: C_19  and  O_21 
REMARK    4  A    between atoms: O_21  and  C_22 
ROOT
HETATM    1  C   UNK N   1      29.116  40.165  56.407  0.00  0.00    -0.027 A 
HETATM    2  C   UNK N   1      29.269  38.837  56.052  0.00  0.00    -0.001 A 
HETATM    3  C   UNK N   1      28.701  38.678  54.812  0.00  0.00     0.054 A 
HETATM    4  C   UNK N   1      28.701  37.428  54.175  0.00  0.00     0.031 A 
HETATM    5  C   UNK N   1      29.301  36.341  54.840  0.00  0.00     0.002 A 
HETATM    6  C   UNK N   1      29.882  36.514  56.112  0.00  0.00     0.001 A 
HETATM    7  C   UNK N   1      29.869  37.775  56.730  0.00  0.00     0.014 A 
HETATM    8  N   UNK N   1      28.195  39.865  54.385  0.00  0.00    -0.268 N 
HETATM    9  C   UNK N   1      28.453  40.774  55.356  0.00  0.00     0.110 A 
HETATM   10  C   UNK N   1      27.537  40.160  53.214  0.00  0.00     0.372 C 
HETATM   11  O   UNK N   1      27.334  39.292  52.381  0.00  0.00    -0.238 OA
ENDROOT
BRANCH   1  12
HETATM   12  C   UNK N   1      29.566  40.802  57.687  0.00  0.00     0.075 C 
BRANCH  12  13
HETATM   13  C   UNK N   1      29.635  42.338  57.592  0.00  0.00     0.181 C 
HETATM   14  C   UNK N   1      29.138  43.113  58.807  0.00  0.00     0.243 C 
HETATM   15  O   UNK N   1      28.605  42.559  59.757  0.00  0.00    -0.271 OA
HETATM   16  N   UNK N   1      29.404  44.453  58.833  0.00  0.00    -0.337 N 
HETATM   17  C   UNK N   1      30.146  45.068  57.754  0.00  0.00     0.179 C 
HETATM   18  C   UNK N   1      29.147  45.339  59.941  0.00  0.00     0.127 C 
HETATM   19  C   UNK N   1      31.269  44.123  57.362  0.00  0.00     0.241 C 
HETATM   20  C   UNK N   1      30.624  46.383  58.383  0.00  0.00     0.037 C 
HETATM   21  O   UNK N   1      32.410  44.525  57.191  0.00  0.00    -0.271 OA
HETATM   22  N   UNK N   1      30.999  42.787  57.337  0.00  0.00    -0.346 N 
HETATM   23  H   UNK N   1      31.759  42.109  57.177  0.00  0.00     0.163 HD
HETATM   24  C   UNK N   1      29.480  46.708  59.336  0.00  0.00     0.022 C 
ENDBRANCH  12  13
ENDBRANCH   1  12
BRANCH  10  25
HETATM   25  O   UNK N   1      27.117  41.440  53.000  0.00  0.00    -0.293 OA
BRANCH  25  26
HETATM   26  C   UNK N   1      27.569  42.327  52.032  0.00  0.00     0.061 C 
HETATM   27  C   UNK N   1      27.183  43.772  52.407  0.00  0.00     0.046 C 
HETATM   28  C   UNK N   1      26.871  41.957  50.714  0.00  0.00     0.046 C 
HETATM   29  C   UNK N   1      29.094  42.190  51.838  0.00  0.00     0.046 C 
ENDBRANCH  25  26
ENDBRANCH  10  25
TORSDOF 4
ENDMDL
MODEL 7
REMARK VINA RESULT:      -6.4      2.766      7.127
REMARK  4 active torsions:
REMARK  status: ('A' for Active; 'I' for Inactive)
REMARK    1  A    between atoms: C_8  and  C_9 
REMARK    2  A    between atoms: C_9  and  C_10 
REMARK       I    between atoms: N_17  and  C_19 
REMARK    3  A    between atoms: C_19  and  O_21 
REMARK    4  A    between atoms: O_21  and  C_22 
ROOT
HETATM    1  C   UNK N   1      39.747  44.846  47.301  0.00  0.00    -0.027 A 
HETATM    2  C   UNK N   1      39.862  46.133  46.803  0.00  0.00    -0.001 A 
HETATM    3  C   UNK N   1      40.692  46.075  45.712  0.00  0.00     0.054 A 
HETATM    4  C   UNK N   1      41.002  47.233  44.981  0.00  0.00     0.031 A 
HETATM    5  C   UNK N   1      40.438  48.454  45.397  0.00  0.00     0.002 A 
HETATM    6  C   UNK N   1      39.585  48.502  46.519  0.00  0.00     0.001 A 
HETATM    7  C   UNK N   1      39.290  47.331  47.234  0.00  0.00     0.014 A 
HETATM    8  N   UNK N   1      41.103  44.794  45.515  0.00  0.00    -0.268 N 
HETATM    9  C   UNK N   1      40.522  44.044  46.483  0.00  0.00     0.110 A 
HETATM   10  C   UNK N   1      41.941  44.287  44.551  0.00  0.00     0.372 C 
HETATM   11  O   UNK N   1      42.434  45.020  43.710  0.00  0.00    -0.238 OA
ENDROOT
BRANCH   1  12
HETATM   12  C   UNK N   1      38.954  44.423  48.501  0.00  0.00     0.075 C 
BRANCH  12  13
HETATM   13  C   UNK N   1      39.634  44.812  49.827  0.00  0.00     0.181 C 
HETATM   14  C   UNK N   1      39.888  43.680  50.815  0.00  0.00     0.243 C 
HETATM   15  O   UNK N   1      39.473  42.546  50.622  0.00  0.00    -0.271 OA
HETATM   16  N   UNK N   1      40.690  43.964  51.884  0.00  0.00    -0.337 N 
HETATM   17  C   UNK N   1      41.272  45.280  52.026  0.00  0.00     0.179 C 
HETATM   18  C   UNK N   1      41.165  43.009  52.854  0.00  0.00     0.127 C 
HETATM   19  C   UNK N   1      41.723  45.743  50.651  0.00  0.00     0.241 C 
HETATM   20  C   UNK N   1      42.420  45.034  53.013  0.00  0.00     0.037 C 
HETATM   21  O   UNK N   1      42.822  46.246  50.477  0.00  0.00    -0.271 OA
HETATM   22  N   UNK N   1      40.920  45.457  49.587  0.00  0.00    -0.346 N 
HETATM   23  H   UNK N   1      41.240  45.662  48.629  0.00  0.00     0.163 HD
HETATM   24  C   UNK N   1      41.853  43.917  53.881  0.00  0.00     0.022 C 
ENDBRANCH  12  13
ENDBRANCH   1  12
BRANCH  10  25
HETATM   25  O   UNK N   1      42.211  42.949  44.552  0.00  0.00    -0.293 OA
BRANCH  25  26
HETATM   26  C   UNK N   1      43.264  42.301  45.183  0.00  0.00     0.061 C 
HETATM   27  C   UNK N   1      44.444  42.122  44.207  0.00  0.00     0.046 C 
HETATM   28  C   UNK N   1      42.758  40.912  45.602  0.00  0.00     0.046 C 
HETATM   29  C   UNK N   1      43.699  43.070  46.448  0.00  0.00     0.046 C 
ENDBRANCH  25  26
ENDBRANCH  10  25
TORSDOF 4
ENDMDL
MODEL 8
REMARK VINA RESULT:      -6.4     14.244     17.441
REMARK  4 active torsions:
REMARK  status: ('A' for Active; 'I' for Inactive)
REMARK    1  A    between atoms: C_8  and  C_9 
REMARK    2  A    between atoms: C_9  and  C_10 
REMARK       I    between atoms: N_17  and  C_19 
REMARK    3  A    between atoms: C_19  and  O_21 
REMARK    4  A    between atoms: O_21  and  C_22 
ROOT
HETATM    1  C   UNK N   1      30.338  46.761  58.310  0.00  0.00    -0.027 A 
HETATM    2  C   UNK N   1      30.166  48.041  57.815  0.00  0.00    -0.001 A 
HETATM    3  C   UNK N   1      29.544  48.776  58.793  0.00  0.00     0.054 A 
HETATM    4  C   UNK N   1      29.234  50.130  58.589  0.00  0.00     0.031 A 
HETATM    5  C   UNK N   1      29.581  50.714  57.356  0.00  0.00     0.002 A 
HETATM    6  C   UNK N   1      30.221  49.951  56.358  0.00  0.00     0.001 A 
HETATM    7  C   UNK N   1      30.520  48.598  56.585  0.00  0.00     0.014 A 
HETATM    8  N   UNK N   1      29.318  47.993  59.881  0.00  0.00    -0.268 N 
HETATM    9  C   UNK N   1      29.807  46.764  59.587  0.00  0.00     0.110 A 
HETATM   10  C   UNK N   1      28.715  48.314  61.074  0.00  0.00     0.372 C 
HETATM   11  O   UNK N   1      28.293  49.441  61.272  0.00  0.00    -0.238 OA
ENDROOT
BRANCH   1  12
HETATM   12  C   UNK N   1      30.959  45.603  57.588  0.00  0.00     0.075 C 
BRANCH  12  13
HETATM   13  C   UNK N   1      31.475  44.514  58.548  0.00  0.00     0.181 C 
HETATM   14  C   UNK N   1      30.567  43.307  58.753  0.00  0.00     0.243 C 
HETATM   15  O   UNK N   1      29.441  43.255  58.278  0.00  0.00    -0.271 OA
HETATM   16  N   UNK N   1      31.104  42.237  59.410  0.00  0.00    -0.337 N 
HETATM   17  C   UNK N   1      32.480  42.273  59.855  0.00  0.00     0.179 C 
HETATM   18  C   UNK N   1      30.468  40.955  59.587  0.00  0.00     0.127 C 
HETATM   19  C   UNK N   1      33.306  42.930  58.763  0.00  0.00     0.241 C 
HETATM   20  C   UNK N   1      32.799  40.789  60.077  0.00  0.00     0.037 C 
HETATM   21  O   UNK N   1      34.368  42.452  58.392  0.00  0.00    -0.271 OA
HETATM   22  N   UNK N   1      32.767  43.998  58.110  0.00  0.00    -0.346 N 
HETATM   23  H   UNK N   1      33.252  44.404  57.295  0.00  0.00     0.163 HD
HETATM   24  C   UNK N   1      31.449  40.242  60.526  0.00  0.00     0.022 C 
ENDBRANCH  12  13
ENDBRANCH   1  12
BRANCH  10  25
HETATM   25  O   UNK N   1      28.601  47.350  62.033  0.00  0.00    -0.293 OA
BRANCH  25  26
HETATM   26  C   UNK N   1      29.232  47.309  63.269  0.00  0.00     0.061 C 
HETATM   27  C   UNK N   1      28.543  48.274  64.254  0.00  0.00     0.046 C 
HETATM   28  C   UNK N   1      30.681  47.774  63.056  0.00  0.00     0.046 C 
HETATM   29  C   UNK N   1      29.252  45.869  63.823  0.00  0.00     0.046 C 
ENDBRANCH  25  26
ENDBRANCH  10  25
TORSDOF 4
ENDMDL
MODEL 9
REMARK VINA RESULT:      -6.4     13.955     16.252
REMARK  4 active torsions:
REMARK  status: ('A' for Active; 'I' for Inactive)
REMARK    1  A    between atoms: C_8  and  C_9 
REMARK    2  A    between atoms: C_9  and  C_10 
REMARK       I    between atoms: N_17  and  C_19 
REMARK    3  A    between atoms: C_19  and  O_21 
REMARK    4  A    between atoms: O_21  and  C_22 
ROOT
HETATM    1  C   UNK N   1      27.821  41.732  55.513  0.00  0.00    -0.027 A 
HETATM    2  C   UNK N   1      27.762  42.007  54.158  0.00  0.00    -0.001 A 
HETATM    3  C   UNK N   1      27.873  40.811  53.495  0.00  0.00     0.054 A 
HETATM    4  C   UNK N   1      27.844  40.761  52.092  0.00  0.00     0.031 A 
HETATM    5  C   UNK N   1      27.695  41.969  51.385  0.00  0.00     0.002 A 
HETATM    6  C   UNK N   1      27.581  43.192  52.076  0.00  0.00     0.001 A 
HETATM    7  C   UNK N   1      27.613  43.218  53.479  0.00  0.00     0.014 A 
HETATM    8  N   UNK N   1      28.004  39.799  54.393  0.00  0.00    -0.268 N 
HETATM    9  C   UNK N   1      27.967  40.361  55.625  0.00  0.00     0.110 A 
HETATM   10  C   UNK N   1      28.152  38.450  54.168  0.00  0.00     0.372 C 
HETATM   11  O   UNK N   1      28.181  38.010  53.032  0.00  0.00    -0.238 OA
ENDROOT
BRANCH   1  12
HETATM   12  C   UNK N   1      27.758  42.732  56.628  0.00  0.00     0.075 C 
BRANCH  12  13
HETATM   13  C   UNK N   1      29.145  43.056  57.213  0.00  0.00     0.181 C 
HETATM   14  C   UNK N   1      29.588  42.219  58.407  0.00  0.00     0.243 C 
HETATM   15  O   UNK N   1      28.843  41.415  58.949  0.00  0.00    -0.271 OA
HETATM   16  N   UNK N   1      30.896  42.333  58.788  0.00  0.00    -0.337 N 
HETATM   17  C   UNK N   1      31.793  43.198  58.054  0.00  0.00     0.179 C 
HETATM   18  C   UNK N   1      31.549  41.535  59.795  0.00  0.00     0.127 C 
HETATM   19  C   UNK N   1      31.491  43.037  56.574  0.00  0.00     0.241 C 
HETATM   20  C   UNK N   1      33.175  42.678  58.472  0.00  0.00     0.037 C 
HETATM   21  O   UNK N   1      32.383  42.892  55.753  0.00  0.00    -0.271 OA
HETATM   22  N   UNK N   1      30.185  42.925  56.199  0.00  0.00    -0.346 N 
HETATM   23  H   UNK N   1      29.946  42.711  55.218  0.00  0.00     0.163 HD
HETATM   24  C   UNK N   1      32.918  42.219  59.902  0.00  0.00     0.022 C 
ENDBRANCH  12  13
ENDBRANCH   1  12
BRANCH  10  25
HETATM   25  O   UNK N   1      28.265  37.615  55.241  0.00  0.00    -0.293 OA
BRANCH  25  26
HETATM   26  C   UNK N   1      29.403  36.948  55.677  0.00  0.00     0.061 C 
HETATM   27  C   UNK N   1      30.567  37.178  54.692  0.00  0.00     0.046 C 
HETATM   28  C   UNK N   1      29.069  35.448  55.703  0.00  0.00     0.046 C 
HETATM   29  C   UNK N   1      29.783  37.394  57.104  0.00  0.00     0.046 C 
ENDBRANCH  25  26
ENDBRANCH  10  25
TORSDOF 4
ENDMDL
