MODEL 1
REMARK VINA RESULT:      -6.8      0.000      0.000
REMARK  10 active torsions:
REMARK  status: ('A' for Active; 'I' for Inactive)
REMARK    1  A    between atoms: C_5  and  O_6 
REMARK    2  A    between atoms: C_9  and  C_28 
REMARK    3  A    between atoms: C_11  and  O_12 
REMARK    4  A    between atoms: O_12  and  C_13 
REMARK    5  A    between atoms: C_15  and  C_25 
REMARK    6  A    between atoms: C_16  and  O_17 
REMARK    7  A    between atoms: C_19  and  O_20 
REMARK    8  A    between atoms: C_22  and  O_23 
REMARK    9  A    between atoms: C_25  and  O_26 
REMARK   10  A    between atoms: C_28  and  O_29 
ROOT
HETATM    1  C   UNK N   1      41.146  44.261  46.563  0.00  0.00     0.294 C 
HETATM    2  O   UNK N   1      42.157  43.361  47.003  0.00  0.00    -0.348 OA
HETATM    3  C   UNK N   1      42.443  42.396  46.000  0.00  0.00     0.179 C 
HETATM    4  C   UNK N   1      43.081  43.094  44.772  0.00  0.00     0.180 C 
HETATM    5  C   UNK N   1      42.096  44.154  44.245  0.00  0.00     0.183 C 
HETATM    6  C   UNK N   1      41.683  45.098  45.384  0.00  0.00     0.204 C 
ENDROOT
BRANCH   1   7
HETATM    7  O   UNK N   1      40.806  45.159  47.601  0.00  0.00    -0.328 OA
BRANCH   7   8
HETATM    8  C   UNK N   1      40.974  44.589  48.885  0.00  0.00     0.277 C 
HETATM    9  O   UNK N   1      39.989  43.648  49.158  0.00  0.00    -0.332 OA
HETATM   10  C   UNK N   1      39.834  43.113  50.403  0.00  0.00     0.134 C 
HETATM   11  C   UNK N   1      40.303  43.753  51.491  0.00  0.00     0.006 C 
HETATM   12  C   UNK N   1      40.964  45.105  51.355  0.00  0.00     0.055 C 
HETATM   13  C   UNK N   1      42.447  45.148  51.751  0.00  0.00     0.149 C 
HETATM   14  C   UNK N   1      40.882  45.702  49.940  0.00  0.00     0.083 C 
HETATM   15  C   UNK N   1      42.935  46.287  50.912  0.00  0.00     0.010 C 
HETATM   16  C   UNK N   1      42.092  46.583  49.928  0.00  0.00    -0.048 C 
BRANCH  13  17
HETATM   17  O   UNK N   1      42.569  45.396  53.126  0.00  0.00    -0.391 OA
HETATM   18  H   UNK N   1      41.781  44.979  53.561  0.00  0.00     0.210 HD
ENDBRANCH  13  17
BRANCH  16  19
HETATM   19  C   UNK N   1      42.390  47.603  48.862  0.00  0.00     0.198 C 
BRANCH  19  20
HETATM   20  O   UNK N   1      43.082  47.021  47.790  0.00  0.00    -0.397 OA
HETATM   21  H   UNK N   1      42.952  46.040  47.861  0.00  0.00     0.209 HD
ENDBRANCH  19  20
ENDBRANCH  16  19
ENDBRANCH   7   8
ENDBRANCH   1   7
BRANCH   6  22
HETATM   22  O   UNK N   1      40.698  45.983  44.918  0.00  0.00    -0.388 OA
HETATM   23  H   UNK N   1      40.364  46.486  45.706  0.00  0.00     0.210 HD
ENDBRANCH   6  22
BRANCH   3  24
HETATM   24  C   UNK N   1      43.375  41.338  46.613  0.00  0.00     0.198 C 
BRANCH  24  25
HETATM   25  O   UNK N   1      44.723  41.691  46.444  0.00  0.00    -0.398 OA
HETATM   26  H   UNK N   1      44.806  42.656  46.661  0.00  0.00     0.209 HD
ENDBRANCH  24  25
ENDBRANCH   3  24
BRANCH   5  27
HETATM   27  O   UNK N   1      42.642  44.870  43.165  0.00  0.00    -0.390 OA
HETATM   28  H   UNK N   1      42.147  45.729  43.093  0.00  0.00     0.210 HD
ENDBRANCH   5  27
BRANCH   4  29
HETATM   29  O   UNK N   1      43.353  42.161  43.758  0.00  0.00    -0.390 OA
HETATM   30  H   UNK N   1      44.190  41.693  44.013  0.00  0.00     0.210 HD
ENDBRANCH   4  29
TORSDOF 10
ENDMDL
MODEL 2
REMARK VINA RESULT:      -6.5      2.491      4.217
REMARK  10 active torsions:
REMARK  status: ('A' for Active; 'I' for Inactive)
REMARK    1  A    between atoms: C_5  and  O_6 
REMARK    2  A    between atoms: C_9  and  C_28 
REMARK    3  A    between atoms: C_11  and  O_12 
REMARK    4  A    between atoms: O_12  and  C_13 
REMARK    5  A    between atoms: C_15  and  C_25 
REMARK    6  A    between atoms: C_16  and  O_17 
REMARK    7  A    between atoms: C_19  and  O_20 
REMARK    8  A    between atoms: C_22  and  O_23 
REMARK    9  A    between atoms: C_25  and  O_26 
REMARK   10  A    between atoms: C_28  and  O_29 
ROOT
HETATM    1  C   UNK N   1      41.679  46.471  48.519  0.00  0.00     0.294 C 
HETATM    2  O   UNK N   1      40.733  45.652  47.843  0.00  0.00    -0.348 OA
HETATM    3  C   UNK N   1      39.862  46.443  47.045  0.00  0.00     0.179 C 
HETATM    4  C   UNK N   1      40.666  47.103  45.895  0.00  0.00     0.180 C 
HETATM    5  C   UNK N   1      41.780  47.968  46.512  0.00  0.00     0.183 C 
HETATM    6  C   UNK N   1      42.618  47.129  47.488  0.00  0.00     0.204 C 
ENDROOT
BRANCH   1   7
HETATM    7  O   UNK N   1      42.480  45.683  49.379  0.00  0.00    -0.328 OA
BRANCH   7   8
HETATM    8  C   UNK N   1      41.887  45.500  50.651  0.00  0.00     0.277 C 
HETATM    9  O   UNK N   1      42.579  46.188  51.640  0.00  0.00    -0.332 OA
HETATM   10  C   UNK N   1      42.309  46.002  52.964  0.00  0.00     0.134 C 
HETATM   11  C   UNK N   1      41.703  44.879  53.394  0.00  0.00     0.006 C 
HETATM   12  C   UNK N   1      41.361  43.777  52.418  0.00  0.00     0.055 C 
HETATM   13  C   UNK N   1      39.859  43.496  52.254  0.00  0.00     0.149 C 
HETATM   14  C   UNK N   1      41.910  44.003  50.999  0.00  0.00     0.083 C 
HETATM   15  C   UNK N   1      39.821  42.945  50.863  0.00  0.00     0.010 C 
HETATM   16  C   UNK N   1      40.928  43.226  50.182  0.00  0.00    -0.048 C 
BRANCH  13  17
HETATM   17  O   UNK N   1      39.438  42.568  53.216  0.00  0.00    -0.391 OA
HETATM   18  H   UNK N   1      39.933  42.778  54.050  0.00  0.00     0.210 HD
ENDBRANCH  13  17
BRANCH  16  19
HETATM   19  C   UNK N   1      41.106  42.899  48.723  0.00  0.00     0.198 C 
BRANCH  19  20
HETATM   20  O   UNK N   1      42.443  43.057  48.334  0.00  0.00    -0.397 OA
HETATM   21  H   UNK N   1      42.672  42.280  47.761  0.00  0.00     0.209 HD
ENDBRANCH  19  20
ENDBRANCH  16  19
ENDBRANCH   7   8
ENDBRANCH   1   7
BRANCH   6  22
HETATM   22  O   UNK N   1      43.553  47.957  48.129  0.00  0.00    -0.388 OA
HETATM   23  H   UNK N   1      43.061  48.466  48.823  0.00  0.00     0.210 HD
ENDBRANCH   6  22
BRANCH   3  24
HETATM   24  C   UNK N   1      38.743  45.532  46.518  0.00  0.00     0.198 C 
BRANCH  24  25
HETATM   25  O   UNK N   1      39.265  44.482  45.746  0.00  0.00    -0.398 OA
HETATM   26  H   UNK N   1      38.881  43.637  46.097  0.00  0.00     0.209 HD
ENDBRANCH  24  25
ENDBRANCH   3  24
BRANCH   5  27
HETATM   27  O   UNK N   1      42.589  48.548  45.518  0.00  0.00    -0.390 OA
HETATM   28  H   UNK N   1      42.578  47.943  44.729  0.00  0.00     0.210 HD
ENDBRANCH   5  27
BRANCH   4  29
HETATM   29  O   UNK N   1      39.830  47.908  45.105  0.00  0.00    -0.390 OA
HETATM   30  H   UNK N   1      39.185  48.345  45.721  0.00  0.00     0.210 HD
ENDBRANCH   4  29
TORSDOF 10
ENDMDL
MODEL 3
REMARK VINA RESULT:      -5.7      1.671      6.305
REMARK  10 active torsions:
REMARK  status: ('A' for Active; 'I' for Inactive)
REMARK    1  A    between atoms: C_5  and  O_6 
REMARK    2  A    between atoms: C_9  and  C_28 
REMARK    3  A    between atoms: C_11  and  O_12 
REMARK    4  A    between atoms: O_12  and  C_13 
REMARK    5  A    between atoms: C_15  and  C_25 
REMARK    6  A    between atoms: C_16  and  O_17 
REMARK    7  A    between atoms: C_19  and  O_20 
REMARK    8  A    between atoms: C_22  and  O_23 
REMARK    9  A    between atoms: C_25  and  O_26 
REMARK   10  A    between atoms: C_28  and  O_29 
ROOT
HETATM    1  C   UNK N   1      41.138  44.412  50.198  0.00  0.00     0.294 C 
HETATM    2  O   UNK N   1      40.076  43.929  51.011  0.00  0.00    -0.348 OA
HETATM    3  C   UNK N   1      40.582  43.338  52.201  0.00  0.00     0.179 C 
HETATM    4  C   UNK N   1      41.253  44.426  53.079  0.00  0.00     0.180 C 
HETATM    5  C   UNK N   1      42.386  45.078  52.267  0.00  0.00     0.183 C 
HETATM    6  C   UNK N   1      41.847  45.577  50.918  0.00  0.00     0.204 C 
ENDROOT
BRANCH   1   7
HETATM    7  O   UNK N   1      40.629  44.915  48.978  0.00  0.00    -0.328 OA
BRANCH   7   8
HETATM    8  C   UNK N   1      40.990  44.112  47.870  0.00  0.00     0.277 C 
HETATM    9  O   UNK N   1      41.588  42.925  48.274  0.00  0.00    -0.332 OA
HETATM   10  C   UNK N   1      42.192  42.088  47.384  0.00  0.00     0.134 C 
HETATM   11  C   UNK N   1      42.618  42.542  46.189  0.00  0.00     0.006 C 
HETATM   12  C   UNK N   1      42.483  44.005  45.838  0.00  0.00     0.055 C 
HETATM   13  C   UNK N   1      41.551  44.307  44.654  0.00  0.00     0.149 C 
HETATM   14  C   UNK N   1      41.993  44.886  47.000  0.00  0.00     0.083 C 
HETATM   15  C   UNK N   1      41.106  45.696  44.986  0.00  0.00     0.010 C 
HETATM   16  C   UNK N   1      41.338  46.007  46.258  0.00  0.00    -0.048 C 
BRANCH  13  17
HETATM   17  O   UNK N   1      42.269  44.241  43.451  0.00  0.00    -0.391 OA
HETATM   18  H   UNK N   1      42.000  45.031  42.916  0.00  0.00     0.210 HD
ENDBRANCH  13  17
BRANCH  16  19
HETATM   19  C   UNK N   1      40.880  47.294  46.892  0.00  0.00     0.198 C 
BRANCH  19  20
HETATM   20  O   UNK N   1      41.670  47.612  48.005  0.00  0.00    -0.397 OA
HETATM   21  H   UNK N   1      41.364  47.035  48.752  0.00  0.00     0.209 HD
ENDBRANCH  19  20
ENDBRANCH  16  19
ENDBRANCH   7   8
ENDBRANCH   1   7
BRANCH   6  22
HETATM   22  O   UNK N   1      42.912  46.062  50.143  0.00  0.00    -0.388 OA
HETATM   23  H   UNK N   1      43.731  45.989  50.698  0.00  0.00     0.210 HD
ENDBRANCH   6  22
BRANCH   3  24
HETATM   24  C   UNK N   1      39.412  42.652  52.924  0.00  0.00     0.198 C 
BRANCH  24  25
HETATM   25  O   UNK N   1      39.152  43.263  54.161  0.00  0.00    -0.398 OA
HETATM   26  H   UNK N   1      39.744  42.836  54.832  0.00  0.00     0.209 HD
ENDBRANCH  24  25
ENDBRANCH   3  24
BRANCH   5  27
HETATM   27  O   UNK N   1      42.998  46.122  52.985  0.00  0.00    -0.390 OA
HETATM   28  H   UNK N   1      43.957  46.144  52.726  0.00  0.00     0.210 HD
ENDBRANCH   5  27
BRANCH   4  29
HETATM   29  O   UNK N   1      41.780  43.861  54.251  0.00  0.00    -0.390 OA
HETATM   30  H   UNK N   1      42.748  43.713  54.089  0.00  0.00     0.210 HD
ENDBRANCH   4  29
TORSDOF 10
ENDMDL
MODEL 4
REMARK VINA RESULT:      -5.5      1.966      6.181
REMARK  10 active torsions:
REMARK  status: ('A' for Active; 'I' for Inactive)
REMARK    1  A    between atoms: C_5  and  O_6 
REMARK    2  A    between atoms: C_9  and  C_28 
REMARK    3  A    between atoms: C_11  and  O_12 
REMARK    4  A    between atoms: O_12  and  C_13 
REMARK    5  A    between atoms: C_15  and  C_25 
REMARK    6  A    between atoms: C_16  and  O_17 
REMARK    7  A    between atoms: C_19  and  O_20 
REMARK    8  A    between atoms: C_22  and  O_23 
REMARK    9  A    between atoms: C_25  and  O_26 
REMARK   10  A    between atoms: C_28  and  O_29 
ROOT
HETATM    1  C   UNK N   1      41.032  43.381  50.353  0.00  0.00     0.294 C 
HETATM    2  O   UNK N   1      40.046  43.192  51.360  0.00  0.00    -0.348 OA
HETATM    3  C   UNK N   1      40.638  43.195  52.652  0.00  0.00     0.179 C 
HETATM    4  C   UNK N   1      41.213  44.603  52.959  0.00  0.00     0.180 C 
HETATM    5  C   UNK N   1      42.253  44.952  51.879  0.00  0.00     0.183 C 
HETATM    6  C   UNK N   1      41.633  44.796  50.482  0.00  0.00     0.204 C 
ENDROOT
BRANCH   1   7
HETATM    7  O   UNK N   1      40.445  43.285  49.070  0.00  0.00    -0.328 OA
BRANCH   7   8
HETATM    8  C   UNK N   1      40.079  44.550  48.549  0.00  0.00     0.277 C 
HETATM    9  O   UNK N   1      38.876  44.993  49.082  0.00  0.00    -0.332 OA
HETATM   10  C   UNK N   1      38.231  46.087  48.585  0.00  0.00     0.134 C 
HETATM   11  C   UNK N   1      38.473  46.520  47.333  0.00  0.00     0.006 C 
HETATM   12  C   UNK N   1      39.425  45.764  46.436  0.00  0.00     0.055 C 
HETATM   13  C   UNK N   1      40.687  46.539  46.025  0.00  0.00     0.149 C 
HETATM   14  C   UNK N   1      39.917  44.431  47.025  0.00  0.00     0.083 C 
HETATM   15  C   UNK N   1      41.648  45.417  45.787  0.00  0.00     0.010 C 
HETATM   16  C   UNK N   1      41.235  44.278  46.335  0.00  0.00    -0.048 C 
BRANCH  13  17
HETATM   17  O   UNK N   1      40.432  47.289  44.868  0.00  0.00    -0.391 OA
HETATM   18  H   UNK N   1      39.525  47.677  44.974  0.00  0.00     0.210 HD
ENDBRANCH  13  17
BRANCH  16  19
HETATM   19  C   UNK N   1      42.064  43.021  46.354  0.00  0.00     0.198 C 
BRANCH  19  20
HETATM   20  O   UNK N   1      42.676  42.844  47.603  0.00  0.00    -0.397 OA
HETATM   21  H   UNK N   1      42.237  42.064  48.032  0.00  0.00     0.209 HD
ENDBRANCH  19  20
ENDBRANCH  16  19
ENDBRANCH   7   8
ENDBRANCH   1   7
BRANCH   6  22
HETATM   22  O   UNK N   1      42.623  45.002  49.509  0.00  0.00    -0.388 OA
HETATM   23  H   UNK N   1      42.447  45.889  49.100  0.00  0.00     0.210 HD
ENDBRANCH   6  22
BRANCH   3  24
HETATM   24  C   UNK N   1      39.564  42.776  53.668  0.00  0.00     0.198 C 
BRANCH  24  25
HETATM   25  O   UNK N   1      38.402  42.325  53.021  0.00  0.00    -0.398 OA
HETATM   26  H   UNK N   1      37.707  42.197  53.717  0.00  0.00     0.209 HD
ENDBRANCH  24  25
ENDBRANCH   3  24
BRANCH   5  27
HETATM   27  O   UNK N   1      42.769  46.247  52.063  0.00  0.00    -0.390 OA
HETATM   28  H   UNK N   1      42.158  46.730  52.680  0.00  0.00     0.210 HD
ENDBRANCH   5  27
BRANCH   4  29
HETATM   29  O   UNK N   1      41.823  44.624  54.223  0.00  0.00    -0.390 OA
HETATM   30  H   UNK N   1      41.217  45.125  54.827  0.00  0.00     0.210 HD
ENDBRANCH   4  29
TORSDOF 10
ENDMDL
MODEL 5
REMARK VINA RESULT:      -5.2      4.131      7.084
REMARK  10 active torsions:
REMARK  status: ('A' for Active; 'I' for Inactive)
REMARK    1  A    between atoms: C_5  and  O_6 
REMARK    2  A    between atoms: C_9  and  C_28 
REMARK    3  A    between atoms: C_11  and  O_12 
REMARK    4  A    between atoms: O_12  and  C_13 
REMARK    5  A    between atoms: C_15  and  C_25 
REMARK    6  A    between atoms: C_16  and  O_17 
REMARK    7  A    between atoms: C_19  and  O_20 
REMARK    8  A    between atoms: C_22  and  O_23 
REMARK    9  A    between atoms: C_25  and  O_26 
REMARK   10  A    between atoms: C_28  and  O_29 
ROOT
HETATM    1  C   UNK N   1      39.926  46.401  46.134  0.00  0.00     0.294 C 
HETATM    2  O   UNK N   1      40.568  45.421  45.327  0.00  0.00    -0.348 OA
HETATM    3  C   UNK N   1      41.569  44.736  46.068  0.00  0.00     0.179 C 
HETATM    4  C   UNK N   1      40.905  43.906  47.198  0.00  0.00     0.180 C 
HETATM    5  C   UNK N   1      40.111  44.863  48.105  0.00  0.00     0.183 C 
HETATM    6  C   UNK N   1      39.139  45.702  47.262  0.00  0.00     0.204 C 
ENDROOT
BRANCH   1   7
HETATM    7  O   UNK N   1      38.996  47.136  45.362  0.00  0.00    -0.328 OA
BRANCH   7   8
HETATM    8  C   UNK N   1      39.609  48.184  44.634  0.00  0.00     0.277 C 
HETATM    9  O   UNK N   1      40.646  48.765  45.352  0.00  0.00    -0.332 OA
HETATM   10  C   UNK N   1      41.250  49.915  44.936  0.00  0.00     0.134 C 
HETATM   11  C   UNK N   1      40.622  50.758  44.093  0.00  0.00     0.006 C 
HETATM   12  C   UNK N   1      39.212  50.468  43.636  0.00  0.00     0.055 C 
HETATM   13  C   UNK N   1      39.054  50.213  42.130  0.00  0.00     0.149 C 
HETATM   14  C   UNK N   1      38.558  49.267  44.342  0.00  0.00     0.083 C 
HETATM   15  C   UNK N   1      37.837  49.342  42.112  0.00  0.00     0.010 C 
HETATM   16  C   UNK N   1      37.573  48.824  43.308  0.00  0.00    -0.048 C 
BRANCH  13  17
HETATM   17  O   UNK N   1      38.860  51.428  41.457  0.00  0.00    -0.391 OA
HETATM   18  H   UNK N   1      37.897  51.650  41.541  0.00  0.00     0.210 HD
ENDBRANCH  13  17
BRANCH  16  19
HETATM   19  C   UNK N   1      36.481  47.816  43.550  0.00  0.00     0.198 C 
BRANCH  19  20
HETATM   20  O   UNK N   1      36.324  46.972  42.441  0.00  0.00    -0.397 OA
HETATM   21  H   UNK N   1      35.441  47.183  42.040  0.00  0.00     0.209 HD
ENDBRANCH  19  20
ENDBRANCH  16  19
ENDBRANCH   7   8
ENDBRANCH   1   7
BRANCH   6  22
HETATM   22  O   UNK N   1      38.509  46.649  48.084  0.00  0.00    -0.388 OA
HETATM   23  H   UNK N   1      38.105  46.152  48.841  0.00  0.00     0.210 HD
ENDBRANCH   6  22
BRANCH   3  24
HETATM   24  C   UNK N   1      42.361  43.853  45.092  0.00  0.00     0.198 C 
BRANCH  24  25
HETATM   25  O   UNK N   1      43.416  43.195  45.744  0.00  0.00    -0.398 OA
HETATM   26  H   UNK N   1      44.030  43.893  46.090  0.00  0.00     0.209 HD
ENDBRANCH  24  25
ENDBRANCH   3  24
BRANCH   5  27
HETATM   27  O   UNK N   1      39.430  44.164  49.118  0.00  0.00    -0.390 OA
HETATM   28  H   UNK N   1      40.106  43.853  49.776  0.00  0.00     0.210 HD
ENDBRANCH   5  27
BRANCH   4  29
HETATM   29  O   UNK N   1      41.878  43.238  47.958  0.00  0.00    -0.390 OA
HETATM   30  H   UNK N   1      41.512  43.144  48.876  0.00  0.00     0.210 HD
ENDBRANCH   4  29
TORSDOF 10
ENDMDL
MODEL 6
REMARK VINA RESULT:      -4.9      4.332      6.354
REMARK  10 active torsions:
REMARK  status: ('A' for Active; 'I' for Inactive)
REMARK    1  A    between atoms: C_5  and  O_6 
REMARK    2  A    between atoms: C_9  and  C_28 
REMARK    3  A    between atoms: C_11  and  O_12 
REMARK    4  A    between atoms: O_12  and  C_13 
REMARK    5  A    between atoms: C_15  and  C_25 
REMARK    6  A    between atoms: C_16  and  O_17 
REMARK    7  A    between atoms: C_19  and  O_20 
REMARK    8  A    between atoms: C_22  and  O_23 
REMARK    9  A    between atoms: C_25  and  O_26 
REMARK   10  A    between atoms: C_28  and  O_29 
ROOT
HETATM    1  C   UNK N   1      38.952  49.377  44.954  0.00  0.00     0.294 C 
HETATM    2  O   UNK N   1      38.310  48.310  44.268  0.00  0.00    -0.348 OA
HETATM    3  C   UNK N   1      37.455  48.809  43.249  0.00  0.00     0.179 C 
HETATM    4  C   UNK N   1      38.302  49.497  42.148  0.00  0.00     0.180 C 
HETATM    5  C   UNK N   1      39.108  50.639  42.794  0.00  0.00     0.183 C 
HETATM    6  C   UNK N   1      39.911  50.105  43.989  0.00  0.00     0.204 C 
ENDROOT
BRANCH   1   7
HETATM    7  O   UNK N   1      39.729  48.873  46.023  0.00  0.00    -0.328 OA
BRANCH   7   8
HETATM    8  C   UNK N   1      39.644  47.465  46.135  0.00  0.00     0.277 C 
HETATM    9  O   UNK N   1      38.378  47.062  46.542  0.00  0.00    -0.332 OA
HETATM   10  C   UNK N   1      38.120  45.773  46.905  0.00  0.00     0.134 C 
HETATM   11  C   UNK N   1      39.113  44.954  47.300  0.00  0.00     0.006 C 
HETATM   12  C   UNK N   1      40.530  45.470  47.401  0.00  0.00     0.055 C 
HETATM   13  C   UNK N   1      41.532  44.812  46.440  0.00  0.00     0.149 C 
HETATM   14  C   UNK N   1      40.662  46.987  47.182  0.00  0.00     0.083 C 
HETATM   15  C   UNK N   1      42.541  45.907  46.284  0.00  0.00     0.010 C 
HETATM   16  C   UNK N   1      42.067  47.085  46.678  0.00  0.00    -0.048 C 
BRANCH  13  17
HETATM   17  O   UNK N   1      42.072  43.659  47.026  0.00  0.00    -0.391 OA
HETATM   18  H   UNK N   1      41.331  43.001  47.095  0.00  0.00     0.210 HD
ENDBRANCH  13  17
BRANCH  16  19
HETATM   19  C   UNK N   1      42.824  48.377  46.518  0.00  0.00     0.198 C 
BRANCH  19  20
HETATM   20  O   UNK N   1      42.598  48.936  45.252  0.00  0.00    -0.397 OA
HETATM   21  H   UNK N   1      41.946  48.348  44.788  0.00  0.00     0.209 HD
ENDBRANCH  19  20
ENDBRANCH  16  19
ENDBRANCH   7   8
ENDBRANCH   1   7
BRANCH   6  22
HETATM   22  O   UNK N   1      40.545  51.176  44.638  0.00  0.00    -0.388 OA
HETATM   23  H   UNK N   1      39.832  51.795  44.941  0.00  0.00     0.210 HD
ENDBRANCH   6  22
BRANCH   3  24
HETATM   24  C   UNK N   1      36.638  47.631  42.696  0.00  0.00     0.198 C 
BRANCH  24  25
HETATM   25  O   UNK N   1      35.276  47.765  43.011  0.00  0.00    -0.398 OA
HETATM   26  H   UNK N   1      35.127  48.707  43.282  0.00  0.00     0.209 HD
ENDBRANCH  24  25
ENDBRANCH   3  24
BRANCH   5  27
HETATM   27  O   UNK N   1      39.949  51.267  41.858  0.00  0.00    -0.390 OA
HETATM   28  H   UNK N   1      39.847  50.789  40.993  0.00  0.00     0.210 HD
ENDBRANCH   5  27
BRANCH   4  29
HETATM   29  O   UNK N   1      37.476  50.018  41.139  0.00  0.00    -0.390 OA
HETATM   30  H   UNK N   1      37.236  49.262  40.544  0.00  0.00     0.210 HD
ENDBRANCH   4  29
TORSDOF 10
ENDMDL
MODEL 7
REMARK VINA RESULT:      -4.8      3.552      5.872
REMARK  10 active torsions:
REMARK  status: ('A' for Active; 'I' for Inactive)
REMARK    1  A    between atoms: C_5  and  O_6 
REMARK    2  A    between atoms: C_9  and  C_28 
REMARK    3  A    between atoms: C_11  and  O_12 
REMARK    4  A    between atoms: O_12  and  C_13 
REMARK    5  A    between atoms: C_15  and  C_25 
REMARK    6  A    between atoms: C_16  and  O_17 
REMARK    7  A    between atoms: C_19  and  O_20 
REMARK    8  A    between atoms: C_22  and  O_23 
REMARK    9  A    between atoms: C_25  and  O_26 
REMARK   10  A    between atoms: C_28  and  O_29 
ROOT
HETATM    1  C   UNK N   1      39.990  48.219  45.377  0.00  0.00     0.294 C 
HETATM    2  O   UNK N   1      38.961  47.587  44.625  0.00  0.00    -0.348 OA
HETATM    3  C   UNK N   1      37.937  48.516  44.294  0.00  0.00     0.179 C 
HETATM    4  C   UNK N   1      38.498  49.587  43.323  0.00  0.00     0.180 C 
HETATM    5  C   UNK N   1      39.679  50.297  44.009  0.00  0.00     0.183 C 
HETATM    6  C   UNK N   1      40.705  49.261  44.493  0.00  0.00     0.204 C 
ENDROOT
BRANCH   1   7
HETATM    7  O   UNK N   1      40.957  47.267  45.777  0.00  0.00    -0.328 OA
BRANCH   7   8
HETATM    8  C   UNK N   1      41.080  47.182  47.184  0.00  0.00     0.277 C 
HETATM    9  O   UNK N   1      42.114  47.982  47.655  0.00  0.00    -0.332 OA
HETATM   10  C   UNK N   1      42.543  47.910  48.947  0.00  0.00     0.134 C 
HETATM   11  C   UNK N   1      42.312  46.811  49.691  0.00  0.00     0.006 C 
HETATM   12  C   UNK N   1      41.619  45.613  49.086  0.00  0.00     0.055 C 
HETATM   13  C   UNK N   1      40.256  45.267  49.704  0.00  0.00     0.149 C 
HETATM   14  C   UNK N   1      41.383  45.726  47.570  0.00  0.00     0.083 C 
HETATM   15  C   UNK N   1      39.582  44.589  48.553  0.00  0.00     0.010 C 
HETATM   16  C   UNK N   1      40.187  44.843  47.397  0.00  0.00    -0.048 C 
BRANCH  13  17
HETATM   17  O   UNK N   1      40.432  44.418  50.806  0.00  0.00    -0.391 OA
HETATM   18  H   UNK N   1      39.527  44.225  51.164  0.00  0.00     0.210 HD
ENDBRANCH  13  17
BRANCH  16  19
HETATM   19  C   UNK N   1      39.650  44.390  46.065  0.00  0.00     0.198 C 
BRANCH  19  20
HETATM   20  O   UNK N   1      40.661  44.383  45.094  0.00  0.00    -0.397 OA
HETATM   21  H   UNK N   1      41.484  44.047  45.535  0.00  0.00     0.209 HD
ENDBRANCH  19  20
ENDBRANCH  16  19
ENDBRANCH   7   8
ENDBRANCH   1   7
BRANCH   6  22
HETATM   22  O   UNK N   1      41.716  49.912  45.218  0.00  0.00    -0.388 OA
HETATM   23  H   UNK N   1      41.707  49.531  46.133  0.00  0.00     0.210 HD
ENDBRANCH   6  22
BRANCH   3  24
HETATM   24  C   UNK N   1      36.768  47.733  43.677  0.00  0.00     0.198 C 
BRANCH  24  25
HETATM   25  O   UNK N   1      36.581  48.079  42.329  0.00  0.00    -0.398 OA
HETATM   26  H   UNK N   1      35.723  48.573  42.267  0.00  0.00     0.209 HD
ENDBRANCH  24  25
ENDBRANCH   3  24
BRANCH   5  27
HETATM   27  O   UNK N   1      40.277  51.241  43.155  0.00  0.00    -0.390 OA
HETATM   28  H   UNK N   1      39.694  51.336  42.355  0.00  0.00     0.210 HD
ENDBRANCH   5  27
BRANCH   4  29
HETATM   29  O   UNK N   1      37.508  50.529  43.000  0.00  0.00    -0.390 OA
HETATM   30  H   UNK N   1      37.836  51.031  42.209  0.00  0.00     0.210 HD
ENDBRANCH   4  29
TORSDOF 10
ENDMDL
MODEL 8
REMARK VINA RESULT:      -4.7     14.269     16.588
REMARK  10 active torsions:
REMARK  status: ('A' for Active; 'I' for Inactive)
REMARK    1  A    between atoms: C_5  and  O_6 
REMARK    2  A    between atoms: C_9  and  C_28 
REMARK    3  A    between atoms: C_11  and  O_12 
REMARK    4  A    between atoms: O_12  and  C_13 
REMARK    5  A    between atoms: C_15  and  C_25 
REMARK    6  A    between atoms: C_16  and  O_17 
REMARK    7  A    between atoms: C_19  and  O_20 
REMARK    8  A    between atoms: C_22  and  O_23 
REMARK    9  A    between atoms: C_25  and  O_26 
REMARK   10  A    between atoms: C_28  and  O_29 
ROOT
HETATM    1  C   UNK N   1      34.023  43.953  61.952  0.00  0.00     0.294 C 
HETATM    2  O   UNK N   1      32.978  43.083  62.368  0.00  0.00    -0.348 OA
HETATM    3  C   UNK N   1      32.026  42.907  61.328  0.00  0.00     0.179 C 
HETATM    4  C   UNK N   1      32.682  42.152  60.143  0.00  0.00     0.180 C 
HETATM    5  C   UNK N   1      33.887  42.973  59.648  0.00  0.00     0.183 C 
HETATM    6  C   UNK N   1      34.830  43.282  60.821  0.00  0.00     0.204 C 
ENDROOT
BRANCH   1   7
HETATM    7  O   UNK N   1      34.915  44.193  63.023  0.00  0.00    -0.328 OA
BRANCH   7   8
HETATM    8  C   UNK N   1      34.706  45.457  63.626  0.00  0.00     0.277 C 
HETATM    9  O   UNK N   1      33.495  46.013  63.237  0.00  0.00    -0.332 OA
HETATM   10  C   UNK N   1      33.171  47.304  63.534  0.00  0.00     0.134 C 
HETATM   11  C   UNK N   1      34.129  48.209  63.815  0.00  0.00     0.006 C 
HETATM   12  C   UNK N   1      35.587  47.818  63.751  0.00  0.00     0.055 C 
HETATM   13  C   UNK N   1      36.338  47.884  65.090  0.00  0.00     0.149 C 
HETATM   14  C   UNK N   1      35.834  46.406  63.193  0.00  0.00     0.083 C 
HETATM   15  C   UNK N   1      37.411  46.865  64.867  0.00  0.00     0.010 C 
HETATM   16  C   UNK N   1      37.135  46.061  63.845  0.00  0.00    -0.048 C 
BRANCH  13  17
HETATM   17  O   UNK N   1      36.849  49.174  65.290  0.00  0.00    -0.391 OA
HETATM   18  H   UNK N   1      37.775  49.172  64.934  0.00  0.00     0.210 HD
ENDBRANCH  13  17
BRANCH  16  19
HETATM   19  C   UNK N   1      37.982  44.871  63.476  0.00  0.00     0.198 C 
BRANCH  19  20
HETATM   20  O   UNK N   1      37.892  44.599  62.104  0.00  0.00    -0.397 OA
HETATM   21  H   UNK N   1      37.827  45.473  61.639  0.00  0.00     0.209 HD
ENDBRANCH  19  20
ENDBRANCH  16  19
ENDBRANCH   7   8
ENDBRANCH   1   7
BRANCH   6  22
HETATM   22  O   UNK N   1      35.859  44.128  60.379  0.00  0.00    -0.388 OA
HETATM   23  H   UNK N   1      35.434  44.847  59.845  0.00  0.00     0.210 HD
ENDBRANCH   6  22
BRANCH   3  24
HETATM   24  C   UNK N   1      30.827  42.140  61.907  0.00  0.00     0.198 C 
BRANCH  24  25
HETATM   25  O   UNK N   1      30.931  40.764  61.648  0.00  0.00    -0.398 OA
HETATM   26  H   UNK N   1      31.770  40.622  61.138  0.00  0.00     0.209 HD
ENDBRANCH  24  25
ENDBRANCH   3  24
BRANCH   5  27
HETATM   27  O   UNK N   1      34.569  42.311  58.611  0.00  0.00    -0.390 OA
HETATM   28  H   UNK N   1      34.707  41.369  58.895  0.00  0.00     0.210 HD
ENDBRANCH   5  27
BRANCH   4  29
HETATM   29  O   UNK N   1      31.765  41.985  59.093  0.00  0.00    -0.390 OA
HETATM   30  H   UNK N   1      31.171  41.232  59.346  0.00  0.00     0.210 HD
ENDBRANCH   4  29
TORSDOF 10
ENDMDL
MODEL 9
REMARK VINA RESULT:      -4.7     14.378     15.720
REMARK  10 active torsions:
REMARK  status: ('A' for Active; 'I' for Inactive)
REMARK    1  A    between atoms: C_5  and  O_6 
REMARK    2  A    between atoms: C_9  and  C_28 
REMARK    3  A    between atoms: C_11  and  O_12 
REMARK    4  A    between atoms: O_12  and  C_13 
REMARK    5  A    between atoms: C_15  and  C_25 
REMARK    6  A    between atoms: C_16  and  O_17 
REMARK    7  A    between atoms: C_19  and  O_20 
REMARK    8  A    between atoms: C_22  and  O_23 
REMARK    9  A    between atoms: C_25  and  O_26 
REMARK   10  A    between atoms: C_28  and  O_29 
ROOT
HETATM    1  C   UNK N   1      47.609  53.919  59.058  0.00  0.00     0.294 C 
HETATM    2  O   UNK N   1      48.884  53.720  58.460  0.00  0.00    -0.348 OA
HETATM    3  C   UNK N   1      48.872  54.136  57.101  0.00  0.00     0.179 C 
HETATM    4  C   UNK N   1      48.666  55.671  57.027  0.00  0.00     0.180 C 
HETATM    5  C   UNK N   1      47.335  56.019  57.716  0.00  0.00     0.183 C 
HETATM    6  C   UNK N   1      47.308  55.430  59.135  0.00  0.00     0.204 C 
ENDROOT
BRANCH   1   7
HETATM    7  O   UNK N   1      47.606  53.420  60.381  0.00  0.00    -0.328 OA
BRANCH   7   8
HETATM    8  C   UNK N   1      46.635  52.408  60.574  0.00  0.00     0.277 C 
HETATM    9  O   UNK N   1      45.510  52.898  61.224  0.00  0.00    -0.332 OA
HETATM   10  C   UNK N   1      44.533  52.068  61.689  0.00  0.00     0.134 C 
HETATM   11  C   UNK N   1      44.790  50.769  61.934  0.00  0.00     0.006 C 
HETATM   12  C   UNK N   1      46.186  50.220  61.750  0.00  0.00     0.055 C 
HETATM   13  C   UNK N   1      46.326  49.153  60.654  0.00  0.00     0.149 C 
HETATM   14  C   UNK N   1      47.244  51.292  61.438  0.00  0.00     0.083 C 
HETATM   15  C   UNK N   1      47.761  49.329  60.264  0.00  0.00     0.010 C 
HETATM   16  C   UNK N   1      48.255  50.490  60.682  0.00  0.00    -0.048 C 
BRANCH  13  17
HETATM   17  O   UNK N   1      46.062  47.883  61.186  0.00  0.00    -0.391 OA
HETATM   18  H   UNK N   1      46.818  47.665  61.791  0.00  0.00     0.210 HD
ENDBRANCH  13  17
BRANCH  16  19
HETATM   19  C   UNK N   1      49.634  50.979  60.324  0.00  0.00     0.198 C 
BRANCH  19  20
HETATM   20  O   UNK N   1      49.794  51.050  58.933  0.00  0.00    -0.397 OA
HETATM   21  H   UNK N   1      49.135  51.711  58.599  0.00  0.00     0.209 HD
ENDBRANCH  19  20
ENDBRANCH  16  19
ENDBRANCH   7   8
ENDBRANCH   1   7
BRANCH   6  22
HETATM   22  O   UNK N   1      46.045  55.654  59.706  0.00  0.00    -0.388 OA
HETATM   23  H   UNK N   1      45.838  56.616  59.583  0.00  0.00     0.210 HD
ENDBRANCH   6  22
BRANCH   3  24
HETATM   24  C   UNK N   1      50.200  53.700  56.461  0.00  0.00     0.198 C 
BRANCH  24  25
HETATM   25  O   UNK N   1      50.231  52.312  56.253  0.00  0.00    -0.398 OA
HETATM   26  H   UNK N   1      51.032  52.114  55.702  0.00  0.00     0.209 HD
ENDBRANCH  24  25
ENDBRANCH   3  24
BRANCH   5  27
HETATM   27  O   UNK N   1      47.116  57.409  57.740  0.00  0.00    -0.390 OA
HETATM   28  H   UNK N   1      47.403  57.743  58.631  0.00  0.00     0.210 HD
ENDBRANCH   5  27
BRANCH   4  29
HETATM   29  O   UNK N   1      48.630  56.102  55.691  0.00  0.00    -0.390 OA
HETATM   30  H   UNK N   1      48.263  57.024  55.695  0.00  0.00     0.210 HD
ENDBRANCH   4  29
TORSDOF 10
ENDMDL
