MODEL 1
REMARK VINA RESULT:      -7.6      0.000      0.000
REMARK  11 active torsions:
REMARK  status: ('A' for Active; 'I' for Inactive)
REMARK       I    between atoms: C_2  and  N_3 
REMARK    1  A    between atoms: C_2  and  C_28 
REMARK    2  A    between atoms: N_3  and  C_4 
REMARK    3  A    between atoms: C_4  and  C_5 
REMARK    4  A    between atoms: C_5  and  C_6 
REMARK    5  A    between atoms: N_10  and  C_12 
REMARK    6  A    between atoms: C_14  and  C_24 
REMARK    7  A    between atoms: C_15  and  O_16 
REMARK    8  A    between atoms: C_18  and  O_19 
REMARK    9  A    between atoms: C_21  and  O_22 
REMARK   10  A    between atoms: C_24  and  O_25 
REMARK   11  A    between atoms: C_29  and  C_30 
ROOT
HETATM    1  C   UNK N   1      38.942  49.531  44.819  0.00  0.00     0.027 A 
HETATM    2  N   UNK N   1      40.096  50.173  44.549  0.00  0.00    -0.354 N 
ATOM      3  HN  UNK N   1      40.212  51.103  44.147  1.00  0.00     0.166 HD
HETATM    4  C   UNK N   1      41.065  49.311  44.926  0.00  0.00     0.185 A 
HETATM    5  N   UNK N   1      40.552  48.161  45.416  0.00  0.00    -0.321 N 
HETATM    6  C   UNK N   1      39.217  48.289  45.340  0.00  0.00     0.119 A 
ENDROOT
BRANCH   5   7
HETATM    7  C   UNK N   1      41.301  47.020  45.954  0.00  0.00     0.260 C 
HETATM    8  O   UNK N   1      40.843  45.824  45.337  0.00  0.00    -0.353 OA
HETATM    9  C   UNK N   1      41.587  44.698  45.779  0.00  0.00     0.179 C 
HETATM   10  C   UNK N   1      41.302  44.449  47.279  0.00  0.00     0.180 C 
HETATM   11  C   UNK N   1      41.728  45.696  48.078  0.00  0.00     0.182 C 
HETATM   12  C   UNK N   1      41.057  46.945  47.486  0.00  0.00     0.198 C 
BRANCH   9  13
HETATM   13  C   UNK N   1      41.185  43.483  44.931  0.00  0.00     0.198 C 
BRANCH  13  14
HETATM   14  O   UNK N   1      39.815  43.523  44.634  0.00  0.00    -0.398 OA
HETATM   15  H   UNK N   1      39.473  44.394  44.963  0.00  0.00     0.209 HD
ENDBRANCH  13  14
ENDBRANCH   9  13
BRANCH  10  16
HETATM   16  O   UNK N   1      41.964  43.304  47.757  0.00  0.00    -0.390 OA
HETATM   17  H   UNK N   1      42.842  43.592  48.121  0.00  0.00     0.210 HD
ENDBRANCH  10  16
BRANCH  11  18
HETATM   18  O   UNK N   1      41.424  45.555  49.443  0.00  0.00    -0.390 OA
HETATM   19  H   UNK N   1      40.452  45.724  49.553  0.00  0.00     0.210 HD
ENDBRANCH  11  18
BRANCH  12  20
HETATM   20  O   UNK N   1      41.497  48.104  48.149  0.00  0.00    -0.388 OA
HETATM   21  H   UNK N   1      41.035  48.138  49.027  0.00  0.00     0.210 HD
ENDBRANCH  12  20
ENDBRANCH   5   7
BRANCH   1  22
HETATM   22  C   UNK N   1      37.582  50.099  44.585  0.00  0.00     0.078 C 
BRANCH  22  23
HETATM   23  C   UNK N   1      37.168  50.032  43.098  0.00  0.00     0.131 C 
BRANCH  23  24
HETATM   24  N   UNK N   1      36.065  49.087  42.951  0.00  0.00    -0.353 N 
HETATM   25  C   UNK N   1      34.772  49.455  43.253  0.00  0.00     0.243 C 
HETATM   26  O   UNK N   1      33.898  48.609  43.365  0.00  0.00    -0.268 OA
HETATM   27  C   UNK N   1      36.389  47.713  42.589  0.00  0.00     0.152 C 
BRANCH  25  28
HETATM   28  C   UNK N   1      34.413  50.881  43.469  0.00  0.00     0.075 C 
HETATM   29  C   UNK N   1      33.338  51.228  44.190  0.00  0.00     0.017 C 
BRANCH  29  30
HETATM   30  C   UNK N   1      33.026  52.648  44.469  0.00  0.00    -0.036 A 
HETATM   31  C   UNK N   1      31.723  53.000  44.853  0.00  0.00     0.011 A 
HETATM   32  C   UNK N   1      31.411  54.331  45.146  0.00  0.00     0.001 A 
HETATM   33  C   UNK N   1      32.387  55.324  45.023  0.00  0.00     0.000 A 
HETATM   34  C   UNK N   1      33.682  54.985  44.622  0.00  0.00     0.001 A 
HETATM   35  C   UNK N   1      34.009  53.650  44.361  0.00  0.00     0.011 A 
ENDBRANCH  29  30
ENDBRANCH  25  28
ENDBRANCH  23  24
ENDBRANCH  22  23
ENDBRANCH   1  22
TORSDOF 11
ENDMDL
MODEL 2
REMARK VINA RESULT:      -7.1      3.194     10.284
REMARK  11 active torsions:
REMARK  status: ('A' for Active; 'I' for Inactive)
REMARK       I    between atoms: C_2  and  N_3 
REMARK    1  A    between atoms: C_2  and  C_28 
REMARK    2  A    between atoms: N_3  and  C_4 
REMARK    3  A    between atoms: C_4  and  C_5 
REMARK    4  A    between atoms: C_5  and  C_6 
REMARK    5  A    between atoms: N_10  and  C_12 
REMARK    6  A    between atoms: C_14  and  C_24 
REMARK    7  A    between atoms: C_15  and  O_16 
REMARK    8  A    between atoms: C_18  and  O_19 
REMARK    9  A    between atoms: C_21  and  O_22 
REMARK   10  A    between atoms: C_24  and  O_25 
REMARK   11  A    between atoms: C_29  and  C_30 
ROOT
HETATM    1  C   UNK N   1      35.132  49.525  43.049  0.00  0.00     0.027 A 
HETATM    2  N   UNK N   1      34.127  48.692  43.383  0.00  0.00    -0.354 N 
ATOM      3  HN  UNK N   1      34.137  47.673  43.384  1.00  0.00     0.166 HD
HETATM    4  C   UNK N   1      33.102  49.506  43.715  0.00  0.00     0.185 A 
HETATM    5  N   UNK N   1      33.436  50.810  43.596  0.00  0.00    -0.321 N 
HETATM    6  C   UNK N   1      34.708  50.828  43.165  0.00  0.00     0.119 A 
ENDROOT
BRANCH   5   7
HETATM    7  C   UNK N   1      32.591  51.969  43.906  0.00  0.00     0.260 C 
HETATM    8  O   UNK N   1      31.984  52.442  42.711  0.00  0.00    -0.353 OA
HETATM    9  C   UNK N   1      31.103  53.524  42.973  0.00  0.00     0.179 C 
HETATM   10  C   UNK N   1      31.920  54.746  43.458  0.00  0.00     0.180 C 
HETATM   11  C   UNK N   1      32.666  54.363  44.750  0.00  0.00     0.182 C 
HETATM   12  C   UNK N   1      33.485  53.083  44.515  0.00  0.00     0.198 C 
BRANCH   9  13
HETATM   13  C   UNK N   1      30.331  53.850  41.687  0.00  0.00     0.198 C 
BRANCH  13  14
HETATM   14  O   UNK N   1      29.105  54.458  41.991  0.00  0.00    -0.398 OA
HETATM   15  H   UNK N   1      28.501  53.743  42.319  0.00  0.00     0.209 HD
ENDBRANCH  13  14
ENDBRANCH   9  13
BRANCH  10  16
HETATM   16  O   UNK N   1      31.104  55.872  43.673  0.00  0.00    -0.390 OA
HETATM   17  H   UNK N   1      30.915  55.927  44.646  0.00  0.00     0.210 HD
ENDBRANCH  10  16
BRANCH  11  18
HETATM   18  O   UNK N   1      33.484  55.414  45.198  0.00  0.00    -0.390 OA
HETATM   19  H   UNK N   1      34.383  55.288  44.794  0.00  0.00     0.210 HD
ENDBRANCH  11  18
BRANCH  12  20
HETATM   20  O   UNK N   1      34.109  52.670  45.705  0.00  0.00    -0.388 OA
HETATM   21  H   UNK N   1      33.646  51.848  46.014  0.00  0.00     0.210 HD
ENDBRANCH  12  20
ENDBRANCH   5   7
BRANCH   1  22
HETATM   22  C   UNK N   1      36.492  49.083  42.624  0.00  0.00     0.078 C 
BRANCH  22  23
HETATM   23  C   UNK N   1      37.419  48.806  43.828  0.00  0.00     0.131 C 
BRANCH  23  24
HETATM   24  N   UNK N   1      38.746  49.346  43.545  0.00  0.00    -0.353 N 
HETATM   25  C   UNK N   1      39.738  49.325  44.501  0.00  0.00     0.243 C 
HETATM   26  O   UNK N   1      40.754  49.987  44.353  0.00  0.00    -0.268 OA
HETATM   27  C   UNK N   1      38.951  50.013  42.265  0.00  0.00     0.152 C 
BRANCH  25  28
HETATM   28  C   UNK N   1      39.590  48.517  45.739  0.00  0.00     0.075 C 
HETATM   29  C   UNK N   1      40.169  47.314  45.860  0.00  0.00     0.017 C 
BRANCH  29  30
HETATM   30  C   UNK N   1      40.085  46.544  47.122  0.00  0.00    -0.036 A 
HETATM   31  C   UNK N   1      38.880  45.910  47.459  0.00  0.00     0.011 A 
HETATM   32  C   UNK N   1      38.785  45.157  48.633  0.00  0.00     0.001 A 
HETATM   33  C   UNK N   1      39.881  45.061  49.496  0.00  0.00     0.000 A 
HETATM   34  C   UNK N   1      41.079  45.706  49.178  0.00  0.00     0.001 A 
HETATM   35  C   UNK N   1      41.191  46.432  47.988  0.00  0.00     0.011 A 
ENDBRANCH  29  30
ENDBRANCH  25  28
ENDBRANCH  23  24
ENDBRANCH  22  23
ENDBRANCH   1  22
TORSDOF 11
ENDMDL
MODEL 3
REMARK VINA RESULT:      -6.9      1.098      2.304
REMARK  11 active torsions:
REMARK  status: ('A' for Active; 'I' for Inactive)
REMARK       I    between atoms: C_2  and  N_3 
REMARK    1  A    between atoms: C_2  and  C_28 
REMARK    2  A    between atoms: N_3  and  C_4 
REMARK    3  A    between atoms: C_4  and  C_5 
REMARK    4  A    between atoms: C_5  and  C_6 
REMARK    5  A    between atoms: N_10  and  C_12 
REMARK    6  A    between atoms: C_14  and  C_24 
REMARK    7  A    between atoms: C_15  and  O_16 
REMARK    8  A    between atoms: C_18  and  O_19 
REMARK    9  A    between atoms: C_21  and  O_22 
REMARK   10  A    between atoms: C_24  and  O_25 
REMARK   11  A    between atoms: C_29  and  C_30 
ROOT
HETATM    1  C   UNK N   1      38.839  49.183  44.946  0.00  0.00     0.027 A 
HETATM    2  N   UNK N   1      40.166  49.395  44.850  0.00  0.00    -0.354 N 
ATOM      3  HN  UNK N   1      40.640  50.222  44.491  1.00  0.00     0.166 HD
HETATM    4  C   UNK N   1      40.730  48.267  45.333  0.00  0.00     0.185 A 
HETATM    5  N   UNK N   1      39.800  47.366  45.722  0.00  0.00    -0.321 N 
HETATM    6  C   UNK N   1      38.608  47.933  45.469  0.00  0.00     0.119 A 
ENDROOT
BRANCH   5   7
HETATM    7  C   UNK N   1      40.044  46.053  46.328  0.00  0.00     0.260 C 
HETATM    8  O   UNK N   1      40.117  46.193  47.740  0.00  0.00    -0.353 OA
HETATM    9  C   UNK N   1      40.286  44.935  48.376  0.00  0.00     0.179 C 
HETATM   10  C   UNK N   1      41.673  44.354  48.009  0.00  0.00     0.180 C 
HETATM   11  C   UNK N   1      41.746  44.175  46.481  0.00  0.00     0.182 C 
HETATM   12  C   UNK N   1      41.389  45.499  45.786  0.00  0.00     0.198 C 
BRANCH   9  13
HETATM   13  C   UNK N   1      40.152  45.130  49.893  0.00  0.00     0.198 C 
BRANCH  13  14
HETATM   14  O   UNK N   1      39.676  43.959  50.499  0.00  0.00    -0.398 OA
HETATM   15  H   UNK N   1      39.888  44.026  51.466  0.00  0.00     0.209 HD
ENDBRANCH  13  14
ENDBRANCH   9  13
BRANCH  10  16
HETATM   16  O   UNK N   1      41.922  43.134  48.663  0.00  0.00    -0.390 OA
HETATM   17  H   UNK N   1      41.981  43.320  49.637  0.00  0.00     0.210 HD
ENDBRANCH  10  16
BRANCH  11  18
HETATM   18  O   UNK N   1      43.014  43.718  46.081  0.00  0.00    -0.390 OA
HETATM   19  H   UNK N   1      42.892  42.831  45.651  0.00  0.00     0.210 HD
ENDBRANCH  11  18
BRANCH  12  20
HETATM   20  O   UNK N   1      41.371  45.336  44.390  0.00  0.00    -0.388 OA
HETATM   21  H   UNK N   1      42.314  45.301  44.082  0.00  0.00     0.210 HD
ENDBRANCH  12  20
ENDBRANCH   5   7
BRANCH   1  22
HETATM   22  C   UNK N   1      37.793  50.169  44.545  0.00  0.00     0.078 C 
BRANCH  22  23
HETATM   23  C   UNK N   1      37.414  50.044  43.053  0.00  0.00     0.131 C 
BRANCH  23  24
HETATM   24  N   UNK N   1      36.307  49.102  42.917  0.00  0.00    -0.353 N 
HETATM   25  C   UNK N   1      35.023  49.461  43.264  0.00  0.00     0.243 C 
HETATM   26  O   UNK N   1      34.153  48.613  43.383  0.00  0.00    -0.268 OA
HETATM   27  C   UNK N   1      36.621  47.736  42.516  0.00  0.00     0.152 C 
BRANCH  25  28
HETATM   28  C   UNK N   1      34.670  50.882  43.522  0.00  0.00     0.075 C 
HETATM   29  C   UNK N   1      33.490  51.221  44.061  0.00  0.00     0.017 C 
BRANCH  29  30
HETATM   30  C   UNK N   1      33.171  52.628  44.388  0.00  0.00    -0.036 A 
HETATM   31  C   UNK N   1      34.168  53.605  44.258  0.00  0.00     0.011 A 
HETATM   32  C   UNK N   1      33.883  54.945  44.538  0.00  0.00     0.001 A 
HETATM   33  C   UNK N   1      32.610  55.313  44.983  0.00  0.00     0.000 A 
HETATM   34  C   UNK N   1      31.615  54.343  45.135  0.00  0.00     0.001 A 
HETATM   35  C   UNK N   1      31.885  53.007  44.824  0.00  0.00     0.011 A 
ENDBRANCH  29  30
ENDBRANCH  25  28
ENDBRANCH  23  24
ENDBRANCH  22  23
ENDBRANCH   1  22
TORSDOF 11
ENDMDL
MODEL 4
REMARK VINA RESULT:      -6.2      2.216      3.343
REMARK  11 active torsions:
REMARK  status: ('A' for Active; 'I' for Inactive)
REMARK       I    between atoms: C_2  and  N_3 
REMARK    1  A    between atoms: C_2  and  C_28 
REMARK    2  A    between atoms: N_3  and  C_4 
REMARK    3  A    between atoms: C_4  and  C_5 
REMARK    4  A    between atoms: C_5  and  C_6 
REMARK    5  A    between atoms: N_10  and  C_12 
REMARK    6  A    between atoms: C_14  and  C_24 
REMARK    7  A    between atoms: C_15  and  O_16 
REMARK    8  A    between atoms: C_18  and  O_19 
REMARK    9  A    between atoms: C_21  and  O_22 
REMARK   10  A    between atoms: C_24  and  O_25 
REMARK   11  A    between atoms: C_29  and  C_30 
ROOT
HETATM    1  C   UNK N   1      40.016  48.034  45.698  0.00  0.00     0.027 A 
HETATM    2  N   UNK N   1      41.176  48.702  45.852  0.00  0.00    -0.354 N 
ATOM      3  HN  UNK N   1      41.339  49.702  45.736  1.00  0.00     0.166 HD
HETATM    4  C   UNK N   1      42.076  47.755  46.194  0.00  0.00     0.185 A 
HETATM    5  N   UNK N   1      41.515  46.527  46.254  0.00  0.00    -0.321 N 
HETATM    6  C   UNK N   1      40.222  46.695  45.931  0.00  0.00     0.119 A 
ENDROOT
BRANCH   5   7
HETATM    7  C   UNK N   1      42.177  45.273  46.629  0.00  0.00     0.260 C 
HETATM    8  O   UNK N   1      42.239  44.417  45.496  0.00  0.00    -0.353 OA
HETATM    9  C   UNK N   1      42.932  43.214  45.795  0.00  0.00     0.179 C 
HETATM   10  C   UNK N   1      42.112  42.387  46.814  0.00  0.00     0.180 C 
HETATM   11  C   UNK N   1      41.939  43.217  48.100  0.00  0.00     0.182 C 
HETATM   12  C   UNK N   1      41.349  44.594  47.754  0.00  0.00     0.198 C 
BRANCH   9  13
HETATM   13  C   UNK N   1      43.142  42.433  44.490  0.00  0.00     0.198 C 
BRANCH  13  14
HETATM   14  O   UNK N   1      44.151  41.472  44.650  0.00  0.00    -0.398 OA
HETATM   15  H   UNK N   1      44.066  41.114  45.571  0.00  0.00     0.209 HD
ENDBRANCH  13  14
ENDBRANCH   9  13
BRANCH  10  16
HETATM   16  O   UNK N   1      42.721  41.152  47.100  0.00  0.00    -0.390 OA
HETATM   17  H   UNK N   1      43.624  41.158  46.687  0.00  0.00     0.210 HD
ENDBRANCH  10  16
BRANCH  11  18
HETATM   18  O   UNK N   1      41.138  42.543  49.038  0.00  0.00    -0.390 OA
HETATM   19  H   UNK N   1      40.487  43.199  49.403  0.00  0.00     0.210 HD
ENDBRANCH  11  18
BRANCH  12  20
HETATM   20  O   UNK N   1      41.259  45.397  48.903  0.00  0.00    -0.388 OA
HETATM   21  H   UNK N   1      42.147  45.383  49.347  0.00  0.00     0.210 HD
ENDBRANCH  12  20
ENDBRANCH   5   7
BRANCH   1  22
HETATM   22  C   UNK N   1      38.716  48.668  45.333  0.00  0.00     0.078 C 
BRANCH  22  23
HETATM   23  C   UNK N   1      38.851  50.190  45.103  0.00  0.00     0.131 C 
BRANCH  23  24
HETATM   24  N   UNK N   1      39.146  50.436  43.695  0.00  0.00    -0.353 N 
HETATM   25  C   UNK N   1      38.240  50.105  42.712  0.00  0.00     0.243 C 
HETATM   26  O   UNK N   1      38.578  50.083  41.539  0.00  0.00    -0.268 OA
HETATM   27  C   UNK N   1      40.474  50.932  43.355  0.00  0.00     0.152 C 
BRANCH  25  28
HETATM   28  C   UNK N   1      36.837  49.749  43.054  0.00  0.00     0.075 C 
HETATM   29  C   UNK N   1      35.884  50.686  43.151  0.00  0.00     0.017 C 
BRANCH  29  30
HETATM   30  C   UNK N   1      34.473  50.323  43.415  0.00  0.00    -0.036 A 
HETATM   31  C   UNK N   1      33.618  51.273  43.992  0.00  0.00     0.011 A 
HETATM   32  C   UNK N   1      32.275  50.960  44.228  0.00  0.00     0.001 A 
HETATM   33  C   UNK N   1      31.787  49.686  43.922  0.00  0.00     0.000 A 
HETATM   34  C   UNK N   1      32.638  48.727  43.366  0.00  0.00     0.001 A 
HETATM   35  C   UNK N   1      33.973  49.045  43.096  0.00  0.00     0.011 A 
ENDBRANCH  29  30
ENDBRANCH  25  28
ENDBRANCH  23  24
ENDBRANCH  22  23
ENDBRANCH   1  22
TORSDOF 11
ENDMDL
MODEL 5
REMARK VINA RESULT:      -6.0     14.115     15.734
REMARK  11 active torsions:
REMARK  status: ('A' for Active; 'I' for Inactive)
REMARK       I    between atoms: C_2  and  N_3 
REMARK    1  A    between atoms: C_2  and  C_28 
REMARK    2  A    between atoms: N_3  and  C_4 
REMARK    3  A    between atoms: C_4  and  C_5 
REMARK    4  A    between atoms: C_5  and  C_6 
REMARK    5  A    between atoms: N_10  and  C_12 
REMARK    6  A    between atoms: C_14  and  C_24 
REMARK    7  A    between atoms: C_15  and  O_16 
REMARK    8  A    between atoms: C_18  and  O_19 
REMARK    9  A    between atoms: C_21  and  O_22 
REMARK   10  A    between atoms: C_24  and  O_25 
REMARK   11  A    between atoms: C_29  and  C_30 
ROOT
HETATM    1  C   UNK N   1      30.338  42.242  55.816  0.00  0.00     0.027 A 
HETATM    2  N   UNK N   1      30.968  41.825  54.700  0.00  0.00    -0.354 N 
ATOM      3  HN  UNK N   1      31.963  41.640  54.578  1.00  0.00     0.166 HD
HETATM    4  C   UNK N   1      29.989  41.706  53.777  0.00  0.00     0.185 A 
HETATM    5  N   UNK N   1      28.780  42.037  54.281  0.00  0.00    -0.321 N 
HETATM    6  C   UNK N   1      28.995  42.387  55.560  0.00  0.00     0.119 A 
ENDROOT
BRANCH   5   7
HETATM    7  C   UNK N   1      27.490  41.991  53.582  0.00  0.00     0.260 C 
HETATM    8  O   UNK N   1      27.062  40.640  53.476  0.00  0.00    -0.353 OA
HETATM    9  C   UNK N   1      25.783  40.550  52.865  0.00  0.00     0.179 C 
HETATM   10  C   UNK N   1      25.886  41.002  51.388  0.00  0.00     0.180 C 
HETATM   11  C   UNK N   1      26.376  42.462  51.350  0.00  0.00     0.182 C 
HETATM   12  C   UNK N   1      27.674  42.595  52.164  0.00  0.00     0.198 C 
BRANCH   9  13
HETATM   13  C   UNK N   1      25.293  39.099  52.966  0.00  0.00     0.198 C 
BRANCH  13  14
HETATM   14  O   UNK N   1      25.752  38.348  51.875  0.00  0.00    -0.398 OA
HETATM   15  H   UNK N   1      26.159  37.521  52.243  0.00  0.00     0.209 HD
ENDBRANCH  13  14
ENDBRANCH   9  13
BRANCH  10  16
HETATM   16  O   UNK N   1      24.659  40.874  50.713  0.00  0.00    -0.390 OA
HETATM   17  H   UNK N   1      24.502  41.715  50.210  0.00  0.00     0.210 HD
ENDBRANCH  10  16
BRANCH  11  18
HETATM   18  O   UNK N   1      26.559  42.904  50.028  0.00  0.00    -0.390 OA
HETATM   19  H   UNK N   1      25.840  42.501  49.474  0.00  0.00     0.210 HD
ENDBRANCH  11  18
BRANCH  12  20
HETATM   20  O   UNK N   1      28.094  43.935  52.209  0.00  0.00    -0.388 OA
HETATM   21  H   UNK N   1      27.517  44.406  52.865  0.00  0.00     0.210 HD
ENDBRANCH  12  20
ENDBRANCH   5   7
BRANCH   1  22
HETATM   22  C   UNK N   1      31.011  42.498  57.122  0.00  0.00     0.078 C 
BRANCH  22  23
HETATM   23  C   UNK N   1      31.287  44.001  57.353  0.00  0.00     0.131 C 
BRANCH  23  24
HETATM   24  N   UNK N   1      30.862  44.365  58.702  0.00  0.00    -0.353 N 
HETATM   25  C   UNK N   1      30.505  45.660  59.008  0.00  0.00     0.243 C 
HETATM   26  O   UNK N   1      30.390  46.011  60.171  0.00  0.00    -0.268 OA
HETATM   27  C   UNK N   1      30.942  43.343  59.739  0.00  0.00     0.152 C 
BRANCH  25  28
HETATM   28  C   UNK N   1      30.273  46.662  57.935  0.00  0.00     0.075 C 
HETATM   29  C   UNK N   1      29.997  47.942  58.225  0.00  0.00     0.017 C 
BRANCH  29  30
HETATM   30  C   UNK N   1      29.842  48.955  57.157  0.00  0.00    -0.036 A 
HETATM   31  C   UNK N   1      30.971  49.368  56.435  0.00  0.00     0.011 A 
HETATM   32  C   UNK N   1      30.845  50.306  55.405  0.00  0.00     0.001 A 
HETATM   33  C   UNK N   1      29.597  50.863  55.114  0.00  0.00     0.000 A 
HETATM   34  C   UNK N   1      28.470  50.474  55.842  0.00  0.00     0.001 A 
HETATM   35  C   UNK N   1      28.585  49.511  56.850  0.00  0.00     0.011 A 
ENDBRANCH  29  30
ENDBRANCH  25  28
ENDBRANCH  23  24
ENDBRANCH  22  23
ENDBRANCH   1  22
TORSDOF 11
ENDMDL
MODEL 6
REMARK VINA RESULT:      -6.0     15.468     18.195
REMARK  11 active torsions:
REMARK  status: ('A' for Active; 'I' for Inactive)
REMARK       I    between atoms: C_2  and  N_3 
REMARK    1  A    between atoms: C_2  and  C_28 
REMARK    2  A    between atoms: N_3  and  C_4 
REMARK    3  A    between atoms: C_4  and  C_5 
REMARK    4  A    between atoms: C_5  and  C_6 
REMARK    5  A    between atoms: N_10  and  C_12 
REMARK    6  A    between atoms: C_14  and  C_24 
REMARK    7  A    between atoms: C_15  and  O_16 
REMARK    8  A    between atoms: C_18  and  O_19 
REMARK    9  A    between atoms: C_21  and  O_22 
REMARK   10  A    between atoms: C_24  and  O_25 
REMARK   11  A    between atoms: C_29  and  C_30 
ROOT
HETATM    1  C   UNK N   1      31.469  43.842  58.471  0.00  0.00     0.027 A 
HETATM    2  N   UNK N   1      32.229  44.170  57.408  0.00  0.00    -0.354 N 
ATOM      3  HN  UNK N   1      32.965  43.614  56.973  1.00  0.00     0.166 HD
HETATM    4  C   UNK N   1      31.803  45.400  57.047  0.00  0.00     0.185 A 
HETATM    5  N   UNK N   1      30.810  45.844  57.849  0.00  0.00    -0.321 N 
HETATM    6  C   UNK N   1      30.604  44.872  58.755  0.00  0.00     0.119 A 
ENDROOT
BRANCH   5   7
HETATM    7  C   UNK N   1      30.083  47.112  57.733  0.00  0.00     0.260 C 
HETATM    8  O   UNK N   1      30.841  48.018  56.943  0.00  0.00    -0.353 OA
HETATM    9  C   UNK N   1      30.145  49.240  56.747  0.00  0.00     0.179 C 
HETATM   10  C   UNK N   1      30.013  49.980  58.100  0.00  0.00     0.180 C 
HETATM   11  C   UNK N   1      29.226  49.088  59.078  0.00  0.00     0.182 C 
HETATM   12  C   UNK N   1      29.883  47.700  59.156  0.00  0.00     0.198 C 
BRANCH   9  13
HETATM   13  C   UNK N   1      30.918  50.087  55.726  0.00  0.00     0.198 C 
BRANCH  13  14
HETATM   14  O   UNK N   1      32.084  50.609  56.305  0.00  0.00    -0.398 OA
HETATM   15  H   UNK N   1      32.825  49.993  56.069  0.00  0.00     0.209 HD
ENDBRANCH  13  14
ENDBRANCH   9  13
BRANCH  10  16
HETATM   16  O   UNK N   1      29.386  51.231  57.956  0.00  0.00    -0.390 OA
HETATM   17  H   UNK N   1      28.406  51.087  58.027  0.00  0.00     0.210 HD
ENDBRANCH  10  16
BRANCH  11  18
HETATM   18  O   UNK N   1      29.139  49.680  60.351  0.00  0.00    -0.390 OA
HETATM   19  H   UNK N   1      29.390  50.636  60.255  0.00  0.00     0.210 HD
ENDBRANCH  11  18
BRANCH  12  20
HETATM   20  O   UNK N   1      29.133  46.844  59.982  0.00  0.00    -0.388 OA
HETATM   21  H   UNK N   1      28.173  47.025  59.805  0.00  0.00     0.210 HD
ENDBRANCH  12  20
ENDBRANCH   5   7
BRANCH   1  22
HETATM   22  C   UNK N   1      31.563  42.551  59.213  0.00  0.00     0.078 C 
BRANCH  22  23
HETATM   23  C   UNK N   1      32.613  42.602  60.345  0.00  0.00     0.131 C 
BRANCH  23  24
HETATM   24  N   UNK N   1      31.934  42.503  61.633  0.00  0.00    -0.353 N 
HETATM   25  C   UNK N   1      32.362  43.236  62.719  0.00  0.00     0.243 C 
HETATM   26  O   UNK N   1      31.958  42.974  63.841  0.00  0.00    -0.268 OA
HETATM   27  C   UNK N   1      30.868  41.518  61.767  0.00  0.00     0.152 C 
BRANCH  25  28
HETATM   28  C   UNK N   1      33.337  44.346  62.555  0.00  0.00     0.075 C 
HETATM   29  C   UNK N   1      34.555  44.291  63.112  0.00  0.00     0.017 C 
BRANCH  29  30
HETATM   30  C   UNK N   1      35.553  45.361  62.884  0.00  0.00    -0.036 A 
HETATM   31  C   UNK N   1      36.855  45.013  62.496  0.00  0.00     0.011 A 
HETATM   32  C   UNK N   1      37.807  46.008  62.252  0.00  0.00     0.001 A 
HETATM   33  C   UNK N   1      37.475  47.354  62.427  0.00  0.00     0.000 A 
HETATM   34  C   UNK N   1      36.186  47.709  62.834  0.00  0.00     0.001 A 
HETATM   35  C   UNK N   1      35.220  46.720  63.047  0.00  0.00     0.011 A 
ENDBRANCH  29  30
ENDBRANCH  25  28
ENDBRANCH  23  24
ENDBRANCH  22  23
ENDBRANCH   1  22
TORSDOF 11
ENDMDL
MODEL 7
REMARK VINA RESULT:      -5.8     15.281     17.651
REMARK  11 active torsions:
REMARK  status: ('A' for Active; 'I' for Inactive)
REMARK       I    between atoms: C_2  and  N_3 
REMARK    1  A    between atoms: C_2  and  C_28 
REMARK    2  A    between atoms: N_3  and  C_4 
REMARK    3  A    between atoms: C_4  and  C_5 
REMARK    4  A    between atoms: C_5  and  C_6 
REMARK    5  A    between atoms: N_10  and  C_12 
REMARK    6  A    between atoms: C_14  and  C_24 
REMARK    7  A    between atoms: C_15  and  O_16 
REMARK    8  A    between atoms: C_18  and  O_19 
REMARK    9  A    between atoms: C_21  and  O_22 
REMARK   10  A    between atoms: C_24  and  O_25 
REMARK   11  A    between atoms: C_29  and  C_30 
ROOT
HETATM    1  C   UNK N   1      31.111  42.920  57.507  0.00  0.00     0.027 A 
HETATM    2  N   UNK N   1      32.253  43.007  56.797  0.00  0.00    -0.354 N 
ATOM      3  HN  UNK N   1      33.155  43.363  57.110  1.00  0.00     0.166 HD
HETATM    4  C   UNK N   1      31.938  42.520  55.578  0.00  0.00     0.185 A 
HETATM    5  N   UNK N   1      30.644  42.137  55.508  0.00  0.00    -0.321 N 
HETATM    6  C   UNK N   1      30.115  42.398  56.715  0.00  0.00     0.119 A 
ENDROOT
BRANCH   5   7
HETATM    7  C   UNK N   1      29.965  41.529  54.358  0.00  0.00     0.260 C 
HETATM    8  O   UNK N   1      29.123  42.496  53.745  0.00  0.00    -0.353 OA
HETATM    9  C   UNK N   1      28.494  41.971  52.585  0.00  0.00     0.179 C 
HETATM   10  C   UNK N   1      27.504  40.855  52.997  0.00  0.00     0.180 C 
HETATM   11  C   UNK N   1      28.287  39.737  53.710  0.00  0.00     0.182 C 
HETATM   12  C   UNK N   1      29.110  40.335  54.863  0.00  0.00     0.198 C 
BRANCH   9  13
HETATM   13  C   UNK N   1      27.768  43.115  51.862  0.00  0.00     0.198 C 
BRANCH  13  14
HETATM   14  O   UNK N   1      27.514  42.768  50.526  0.00  0.00    -0.398 OA
HETATM   15  H   UNK N   1      26.636  42.307  50.509  0.00  0.00     0.209 HD
ENDBRANCH  13  14
ENDBRANCH   9  13
BRANCH  10  16
HETATM   16  O   UNK N   1      26.803  40.341  51.891  0.00  0.00    -0.390 OA
HETATM   17  H   UNK N   1      27.443  39.811  51.347  0.00  0.00     0.210 HD
ENDBRANCH  10  16
BRANCH  11  18
HETATM   18  O   UNK N   1      27.426  38.727  54.173  0.00  0.00    -0.390 OA
HETATM   19  H   UNK N   1      27.162  38.175  53.390  0.00  0.00     0.210 HD
ENDBRANCH  11  18
BRANCH  12  20
HETATM   20  O   UNK N   1      29.896  39.344  55.476  0.00  0.00    -0.388 OA
HETATM   21  H   UNK N   1      30.049  39.625  56.416  0.00  0.00     0.210 HD
ENDBRANCH  12  20
ENDBRANCH   5   7
BRANCH   1  22
HETATM   22  C   UNK N   1      30.968  43.328  58.935  0.00  0.00     0.078 C 
BRANCH  22  23
HETATM   23  C   UNK N   1      32.094  42.752  59.823  0.00  0.00     0.131 C 
BRANCH  23  24
HETATM   24  N   UNK N   1      31.551  42.441  61.142  0.00  0.00    -0.353 N 
HETATM   25  C   UNK N   1      32.090  43.000  62.280  0.00  0.00     0.243 C 
HETATM   26  O   UNK N   1      31.804  42.559  63.382  0.00  0.00    -0.268 OA
HETATM   27  C   UNK N   1      30.504  41.431  61.226  0.00  0.00     0.152 C 
BRANCH  25  28
HETATM   28  C   UNK N   1      33.043  44.138  62.195  0.00  0.00     0.075 C 
HETATM   29  C   UNK N   1      34.130  44.197  62.979  0.00  0.00     0.017 C 
BRANCH  29  30
HETATM   30  C   UNK N   1      35.119  45.289  62.840  0.00  0.00    -0.036 A 
HETATM   31  C   UNK N   1      34.791  46.573  63.301  0.00  0.00     0.011 A 
HETATM   32  C   UNK N   1      35.718  47.615  63.203  0.00  0.00     0.001 A 
HETATM   33  C   UNK N   1      36.965  47.390  62.613  0.00  0.00     0.000 A 
HETATM   34  C   UNK N   1      37.293  46.120  62.133  0.00  0.00     0.001 A 
HETATM   35  C   UNK N   1      36.382  45.066  62.259  0.00  0.00     0.011 A 
ENDBRANCH  29  30
ENDBRANCH  25  28
ENDBRANCH  23  24
ENDBRANCH  22  23
ENDBRANCH   1  22
TORSDOF 11
ENDMDL
MODEL 8
REMARK VINA RESULT:      -5.7      2.455      4.390
REMARK  11 active torsions:
REMARK  status: ('A' for Active; 'I' for Inactive)
REMARK       I    between atoms: C_2  and  N_3 
REMARK    1  A    between atoms: C_2  and  C_28 
REMARK    2  A    between atoms: N_3  and  C_4 
REMARK    3  A    between atoms: C_4  and  C_5 
REMARK    4  A    between atoms: C_5  and  C_6 
REMARK    5  A    between atoms: N_10  and  C_12 
REMARK    6  A    between atoms: C_14  and  C_24 
REMARK    7  A    between atoms: C_15  and  O_16 
REMARK    8  A    between atoms: C_18  and  O_19 
REMARK    9  A    between atoms: C_21  and  O_22 
REMARK   10  A    between atoms: C_24  and  O_25 
REMARK   11  A    between atoms: C_29  and  C_30 
ROOT
HETATM    1  C   UNK N   1      39.861  47.742  46.159  0.00  0.00     0.027 A 
HETATM    2  N   UNK N   1      41.044  48.233  46.576  0.00  0.00    -0.354 N 
ATOM      3  HN  UNK N   1      41.579  49.000  46.168  1.00  0.00     0.166 HD
HETATM    4  C   UNK N   1      41.369  47.484  47.651  0.00  0.00     0.185 A 
HETATM    5  N   UNK N   1      40.430  46.547  47.912  0.00  0.00    -0.321 N 
HETATM    6  C   UNK N   1      39.485  46.697  46.969  0.00  0.00     0.119 A 
ENDROOT
BRANCH   5   7
HETATM    7  C   UNK N   1      40.428  45.585  49.020  0.00  0.00     0.260 C 
HETATM    8  O   UNK N   1      41.361  46.004  50.008  0.00  0.00    -0.353 OA
HETATM    9  C   UNK N   1      41.346  45.138  51.132  0.00  0.00     0.179 C 
HETATM   10  C   UNK N   1      41.877  43.745  50.717  0.00  0.00     0.180 C 
HETATM   11  C   UNK N   1      40.965  43.176  49.614  0.00  0.00     0.182 C 
HETATM   12  C   UNK N   1      40.839  44.193  48.468  0.00  0.00     0.198 C 
BRANCH   9  13
HETATM   13  C   UNK N   1      42.216  45.754  52.237  0.00  0.00     0.198 C 
BRANCH  13  14
HETATM   14  O   UNK N   1      41.911  45.180  53.480  0.00  0.00    -0.398 OA
HETATM   15  H   UNK N   1      41.301  45.808  53.946  0.00  0.00     0.209 HD
ENDBRANCH  13  14
ENDBRANCH   9  13
BRANCH  10  16
HETATM   16  O   UNK N   1      41.945  42.861  51.808  0.00  0.00    -0.390 OA
HETATM   17  H   UNK N   1      41.738  43.379  52.630  0.00  0.00     0.210 HD
ENDBRANCH  10  16
BRANCH  11  18
HETATM   18  O   UNK N   1      41.442  41.940  49.144  0.00  0.00    -0.390 OA
HETATM   19  H   UNK N   1      41.070  41.231  49.732  0.00  0.00     0.210 HD
ENDBRANCH  11  18
BRANCH  12  20
HETATM   20  O   UNK N   1      39.945  43.728  47.489  0.00  0.00    -0.388 OA
HETATM   21  H   UNK N   1      39.499  42.919  47.853  0.00  0.00     0.210 HD
ENDBRANCH  12  20
ENDBRANCH   5   7
BRANCH   1  22
HETATM   22  C   UNK N   1      39.087  48.268  44.997  0.00  0.00     0.078 C 
BRANCH  22  23
HETATM   23  C   UNK N   1      38.946  49.806  45.037  0.00  0.00     0.131 C 
BRANCH  23  24
HETATM   24  N   UNK N   1      39.276  50.352  43.724  0.00  0.00    -0.353 N 
HETATM   25  C   UNK N   1      38.391  50.253  42.672  0.00  0.00     0.243 C 
HETATM   26  O   UNK N   1      38.758  50.484  41.530  0.00  0.00    -0.268 OA
HETATM   27  C   UNK N   1      40.614  50.897  43.530  0.00  0.00     0.152 C 
BRANCH  25  28
HETATM   28  C   UNK N   1      36.980  49.845  42.896  0.00  0.00     0.075 C 
HETATM   29  C   UNK N   1      36.052  50.729  43.289  0.00  0.00     0.017 C 
BRANCH  29  30
HETATM   30  C   UNK N   1      34.632  50.339  43.437  0.00  0.00    -0.036 A 
HETATM   31  C   UNK N   1      34.233  49.049  43.059  0.00  0.00     0.011 A 
HETATM   32  C   UNK N   1      32.902  48.649  43.213  0.00  0.00     0.001 A 
HETATM   33  C   UNK N   1      31.954  49.547  43.713  0.00  0.00     0.000 A 
HETATM   34  C   UNK N   1      32.338  50.841  44.073  0.00  0.00     0.001 A 
HETATM   35  C   UNK N   1      33.675  51.235  43.953  0.00  0.00     0.011 A 
ENDBRANCH  29  30
ENDBRANCH  25  28
ENDBRANCH  23  24
ENDBRANCH  22  23
ENDBRANCH   1  22
TORSDOF 11
ENDMDL
MODEL 9
REMARK VINA RESULT:      -5.7     14.519     15.677
REMARK  11 active torsions:
REMARK  status: ('A' for Active; 'I' for Inactive)
REMARK       I    between atoms: C_2  and  N_3 
REMARK    1  A    between atoms: C_2  and  C_28 
REMARK    2  A    between atoms: N_3  and  C_4 
REMARK    3  A    between atoms: C_4  and  C_5 
REMARK    4  A    between atoms: C_5  and  C_6 
REMARK    5  A    between atoms: N_10  and  C_12 
REMARK    6  A    between atoms: C_14  and  C_24 
REMARK    7  A    between atoms: C_15  and  O_16 
REMARK    8  A    between atoms: C_18  and  O_19 
REMARK    9  A    between atoms: C_21  and  O_22 
REMARK   10  A    between atoms: C_24  and  O_25 
REMARK   11  A    between atoms: C_29  and  C_30 
ROOT
HETATM    1  C   UNK N   1      31.211  43.248  57.112  0.00  0.00     0.027 A 
HETATM    2  N   UNK N   1      32.327  43.130  56.367  0.00  0.00    -0.354 N 
ATOM      3  HN  UNK N   1      33.243  43.539  56.548  1.00  0.00     0.166 HD
HETATM    4  C   UNK N   1      31.964  42.350  55.326  0.00  0.00     0.185 A 
HETATM    5  N   UNK N   1      30.665  41.986  55.399  0.00  0.00    -0.321 N 
HETATM    6  C   UNK N   1      30.183  42.558  56.515  0.00  0.00     0.119 A 
ENDROOT
BRANCH   5   7
HETATM    7  C   UNK N   1      29.940  41.114  54.468  0.00  0.00     0.260 C 
HETATM    8  O   UNK N   1      29.219  41.914  53.541  0.00  0.00    -0.353 OA
HETATM    9  C   UNK N   1      28.552  41.112  52.577  0.00  0.00     0.179 C 
HETATM   10  C   UNK N   1      27.439  40.291  53.270  0.00  0.00     0.180 C 
HETATM   11  C   UNK N   1      28.083  39.387  54.338  0.00  0.00     0.182 C 
HETATM   12  C   UNK N   1      28.951  40.236  55.282  0.00  0.00     0.198 C 
BRANCH   9  13
HETATM   13  C   UNK N   1      27.968  42.032  51.495  0.00  0.00     0.198 C 
BRANCH  13  14
HETATM   14  O   UNK N   1      27.763  41.320  50.303  0.00  0.00    -0.398 OA
HETATM   15  H   UNK N   1      28.002  41.929  49.558  0.00  0.00     0.209 HD
ENDBRANCH  13  14
ENDBRANCH   9  13
BRANCH  10  16
HETATM   16  O   UNK N   1      26.701  39.524  52.351  0.00  0.00    -0.390 OA
HETATM   17  H   UNK N   1      26.020  40.118  51.940  0.00  0.00     0.210 HD
ENDBRANCH  10  16
BRANCH  11  18
HETATM   18  O   UNK N   1      27.109  38.669  55.053  0.00  0.00    -0.390 OA
HETATM   19  H   UNK N   1      26.822  37.905  54.486  0.00  0.00     0.210 HD
ENDBRANCH  11  18
BRANCH  12  20
HETATM   20  O   UNK N   1      29.613  39.418  56.214  0.00  0.00    -0.388 OA
HETATM   21  H   UNK N   1      29.856  39.989  56.990  0.00  0.00     0.210 HD
ENDBRANCH  12  20
ENDBRANCH   5   7
BRANCH   1  22
HETATM   22  C   UNK N   1      31.123  44.014  58.390  0.00  0.00     0.078 C 
BRANCH  22  23
HETATM   23  C   UNK N   1      29.665  44.363  58.763  0.00  0.00     0.131 C 
BRANCH  23  24
HETATM   24  N   UNK N   1      29.657  45.108  60.019  0.00  0.00    -0.353 N 
HETATM   25  C   UNK N   1      29.746  46.482  60.028  0.00  0.00     0.243 C 
HETATM   26  O   UNK N   1      29.985  47.081  61.065  0.00  0.00    -0.268 OA
HETATM   27  C   UNK N   1      29.673  44.347  61.262  0.00  0.00     0.152 C 
BRANCH  25  28
HETATM   28  C   UNK N   1      29.575  47.268  58.778  0.00  0.00     0.075 C 
HETATM   29  C   UNK N   1      29.868  48.575  58.730  0.00  0.00     0.017 C 
BRANCH  29  30
HETATM   30  C   UNK N   1      29.770  49.339  57.465  0.00  0.00    -0.036 A 
HETATM   31  C   UNK N   1      30.916  49.500  56.673  0.00  0.00     0.011 A 
HETATM   32  C   UNK N   1      30.842  50.197  55.462  0.00  0.00     0.001 A 
HETATM   33  C   UNK N   1      29.633  50.766  55.053  0.00  0.00     0.000 A 
HETATM   34  C   UNK N   1      28.492  50.628  55.846  0.00  0.00     0.001 A 
HETATM   35  C   UNK N   1      28.551  49.903  57.041  0.00  0.00     0.011 A 
ENDBRANCH  29  30
ENDBRANCH  25  28
ENDBRANCH  23  24
ENDBRANCH  22  23
ENDBRANCH   1  22
TORSDOF 11
ENDMDL
