MODEL 1
REMARK VINA RESULT:      -8.7      0.000      0.000
REMARK  11 active torsions:
REMARK  status: ('A' for Active; 'I' for Inactive)
REMARK    1  A    between atoms: C_2  and  O_3 
REMARK    2  A    between atoms: C_2  and  C_28 
REMARK    3  A    between atoms: O_3  and  C_4 
REMARK    4  A    between atoms: C_5  and  C_18 
REMARK    5  A    between atoms: C_9  and  O_10 
REMARK    6  A    between atoms: C_13  and  O_16 
REMARK    7  A    between atoms: C_20  and  O_21 
REMARK    8  A    between atoms: C_23  and  O_24 
REMARK    9  A    between atoms: C_30  and  O_31 
REMARK   10  A    between atoms: C_33  and  O_34 
REMARK   11  A    between atoms: C_36  and  O_38 
ROOT
HETATM    1  C   UNK N   1      41.126  46.564  47.298  0.00  0.00     0.170 C 
HETATM    2  C   UNK N   1      40.548  45.804  46.099  0.00  0.00     0.192 C 
HETATM    3  O   UNK N   1      40.386  46.686  45.046  0.00  0.00    -0.338 OA
HETATM    4  C   UNK N   1      39.823  47.908  45.213  0.00  0.00     0.081 A 
HETATM    5  C   UNK N   1      39.383  48.616  44.095  0.00  0.00     0.074 A 
HETATM    6  C   UNK N   1      38.761  49.861  44.248  0.00  0.00     0.071 A 
HETATM    7  C   UNK N   1      38.580  50.397  45.528  0.00  0.00     0.073 A 
HETATM    8  C   UNK N   1      39.026  49.700  46.661  0.00  0.00     0.077 A 
HETATM    9  C   UNK N   1      39.664  48.457  46.506  0.00  0.00     0.011 A 
HETATM   10  C   UNK N   1      40.160  47.689  47.711  0.00  0.00     0.080 C 
ENDROOT
BRANCH   1  11
HETATM   11  O   UNK N   1      41.300  45.692  48.349  0.00  0.00    -0.309 OA
BRANCH  11  12
HETATM   12  C   UNK N   1      40.305  45.213  49.134  0.00  0.00     0.294 C 
HETATM   13  O   UNK N   1      39.169  45.090  48.698  0.00  0.00    -0.259 OA
BRANCH  12  14
HETATM   14  C   UNK N   1      40.622  44.841  50.527  0.00  0.00     0.045 A 
HETATM   15  C   UNK N   1      41.665  45.491  51.201  0.00  0.00     0.057 A 
HETATM   16  C   UNK N   1      41.991  45.146  52.512  0.00  0.00     0.102 A 
HETATM   17  C   UNK N   1      41.265  44.137  53.176  0.00  0.00     0.132 A 
HETATM   18  C   UNK N   1      40.193  43.492  52.506  0.00  0.00     0.102 A 
HETATM   19  C   UNK N   1      39.888  43.845  51.187  0.00  0.00     0.057 A 
BRANCH  16  20
HETATM   20  O   UNK N   1      43.008  45.791  53.120  0.00  0.00    -0.358 OA
HETATM   21  H   UNK N   1      43.209  46.722  52.950  0.00  0.00     0.218 HD
ENDBRANCH  16  20
BRANCH  17  22
HETATM   22  O   UNK N   1      41.622  43.808  54.438  0.00  0.00    -0.356 OA
HETATM   23  H   UNK N   1      41.153  44.105  55.227  0.00  0.00     0.218 HD
ENDBRANCH  17  22
BRANCH  18  24
HETATM   24  O   UNK N   1      39.434  42.542  53.097  0.00  0.00    -0.358 OA
HETATM   25  H   UNK N   1      39.657  42.117  53.933  0.00  0.00     0.218 HD
ENDBRANCH  18  24
ENDBRANCH  12  14
ENDBRANCH  11  12
ENDBRANCH   1  11
BRANCH   2  26
HETATM   26  C   UNK N   1      41.439  44.664  45.665  0.00  0.00    -0.024 A 
HETATM   27  C   UNK N   1      41.680  43.579  46.526  0.00  0.00     0.049 A 
HETATM   28  C   UNK N   1      42.507  42.523  46.127  0.00  0.00     0.099 A 
HETATM   29  C   UNK N   1      43.104  42.548  44.852  0.00  0.00     0.098 A 
HETATM   30  C   UNK N   1      42.863  43.629  43.993  0.00  0.00     0.040 A 
HETATM   31  C   UNK N   1      42.038  44.680  44.396  0.00  0.00     0.013 A 
BRANCH  28  32
HETATM   32  O   UNK N   1      42.720  41.497  46.977  0.00  0.00    -0.358 OA
HETATM   33  H   UNK N   1      43.329  41.563  47.725  0.00  0.00     0.218 HD
ENDBRANCH  28  32
BRANCH  29  34
HETATM   34  O   UNK N   1      43.906  41.535  44.462  0.00  0.00    -0.358 OA
HETATM   35  H   UNK N   1      44.615  41.200  45.029  0.00  0.00     0.218 HD
ENDBRANCH  29  34
ENDBRANCH   2  26
BRANCH   8  36
HETATM   36  O   UNK N   1      38.854  50.221  47.895  0.00  0.00    -0.360 OA
HETATM   37  H   UNK N   1      39.525  50.783  48.310  0.00  0.00     0.217 HD
ENDBRANCH   8  36
BRANCH   6  38
HETATM   38  O   UNK N   1      38.327  50.544  43.170  0.00  0.00    -0.361 OA
HETATM   39  H   UNK N   1      37.414  50.467  42.857  0.00  0.00     0.217 HD
ENDBRANCH   6  38
TORSDOF 11
ENDMDL
MODEL 2
REMARK VINA RESULT:      -7.5     11.612     17.559
REMARK  11 active torsions:
REMARK  status: ('A' for Active; 'I' for Inactive)
REMARK    1  A    between atoms: C_2  and  O_3 
REMARK    2  A    between atoms: C_2  and  C_28 
REMARK    3  A    between atoms: O_3  and  C_4 
REMARK    4  A    between atoms: C_5  and  C_18 
REMARK    5  A    between atoms: C_9  and  O_10 
REMARK    6  A    between atoms: C_13  and  O_16 
REMARK    7  A    between atoms: C_20  and  O_21 
REMARK    8  A    between atoms: C_23  and  O_24 
REMARK    9  A    between atoms: C_30  and  O_31 
REMARK   10  A    between atoms: C_33  and  O_34 
REMARK   11  A    between atoms: C_36  and  O_38 
ROOT
HETATM    1  C   UNK N   1      30.197  55.196  41.930  0.00  0.00     0.170 C 
HETATM    2  C   UNK N   1      30.534  53.903  41.180  0.00  0.00     0.192 C 
HETATM    3  O   UNK N   1      30.942  52.949  42.095  0.00  0.00    -0.338 OA
HETATM    4  C   UNK N   1      31.832  53.231  43.078  0.00  0.00     0.081 A 
HETATM    5  C   UNK N   1      32.456  52.185  43.756  0.00  0.00     0.074 A 
HETATM    6  C   UNK N   1      33.409  52.454  44.745  0.00  0.00     0.071 A 
HETATM    7  C   UNK N   1      33.736  53.779  45.057  0.00  0.00     0.073 A 
HETATM    8  C   UNK N   1      33.108  54.842  44.390  0.00  0.00     0.077 A 
HETATM    9  C   UNK N   1      32.140  54.572  43.407  0.00  0.00     0.011 A 
HETATM   10  C   UNK N   1      31.445  55.699  42.678  0.00  0.00     0.080 C 
ENDROOT
BRANCH   1  11
HETATM   11  O   UNK N   1      29.781  56.150  41.028  0.00  0.00    -0.309 OA
BRANCH  11  12
HETATM   12  C   UNK N   1      28.660  56.901  41.153  0.00  0.00     0.294 C 
HETATM   13  O   UNK N   1      28.658  57.911  41.841  0.00  0.00    -0.259 OA
BRANCH  12  14
HETATM   14  C   UNK N   1      27.441  56.473  40.438  0.00  0.00     0.045 A 
HETATM   15  C   UNK N   1      26.253  56.263  41.151  0.00  0.00     0.057 A 
HETATM   16  C   UNK N   1      25.094  55.846  40.498  0.00  0.00     0.102 A 
HETATM   17  C   UNK N   1      25.108  55.634  39.105  0.00  0.00     0.132 A 
HETATM   18  C   UNK N   1      26.303  55.867  38.375  0.00  0.00     0.102 A 
HETATM   19  C   UNK N   1      27.457  56.276  39.050  0.00  0.00     0.057 A 
BRANCH  16  20
HETATM   20  O   UNK N   1      23.974  55.647  41.225  0.00  0.00    -0.358 OA
HETATM   21  H   UNK N   1      23.146  56.111  41.040  0.00  0.00     0.218 HD
ENDBRANCH  16  20
BRANCH  17  22
HETATM   22  O   UNK N   1      23.974  55.205  38.506  0.00  0.00    -0.356 OA
HETATM   23  H   UNK N   1      23.951  54.539  37.809  0.00  0.00     0.218 HD
ENDBRANCH  17  22
BRANCH  18  24
HETATM   24  O   UNK N   1      26.373  55.718  37.034  0.00  0.00    -0.358 OA
HETATM   25  H   UNK N   1      27.152  55.933  36.507  0.00  0.00     0.218 HD
ENDBRANCH  18  24
ENDBRANCH  12  14
ENDBRANCH  11  12
ENDBRANCH   1  11
BRANCH   2  26
HETATM   26  C   UNK N   1      29.354  53.375  40.399  0.00  0.00    -0.024 A 
HETATM   27  C   UNK N   1      28.133  53.106  41.044  0.00  0.00     0.049 A 
HETATM   28  C   UNK N   1      27.040  52.615  40.322  0.00  0.00     0.099 A 
HETATM   29  C   UNK N   1      27.162  52.388  38.938  0.00  0.00     0.098 A 
HETATM   30  C   UNK N   1      28.378  52.658  38.294  0.00  0.00     0.040 A 
HETATM   31  C   UNK N   1      29.467  53.147  39.019  0.00  0.00     0.013 A 
BRANCH  28  32
HETATM   32  O   UNK N   1      25.883  52.365  40.971  0.00  0.00    -0.358 OA
HETATM   33  H   UNK N   1      25.746  52.609  41.897  0.00  0.00     0.218 HD
ENDBRANCH  28  32
BRANCH  29  34
HETATM   34  O   UNK N   1      26.112  51.912  38.236  0.00  0.00    -0.358 OA
HETATM   35  H   UNK N   1      25.473  51.301  38.629  0.00  0.00     0.218 HD
ENDBRANCH  29  34
ENDBRANCH   2  26
BRANCH   8  36
HETATM   36  O   UNK N   1      33.422  56.119  44.695  0.00  0.00    -0.360 OA
HETATM   37  H   UNK N   1      32.951  56.869  44.301  0.00  0.00     0.217 HD
ENDBRANCH   8  36
BRANCH   6  38
HETATM   38  O   UNK N   1      34.021  51.445  45.396  0.00  0.00    -0.361 OA
HETATM   39  H   UNK N   1      33.789  51.217  46.308  0.00  0.00     0.217 HD
ENDBRANCH   6  38
TORSDOF 11
ENDMDL
MODEL 3
REMARK VINA RESULT:      -7.2     11.614     17.303
REMARK  11 active torsions:
REMARK  status: ('A' for Active; 'I' for Inactive)
REMARK    1  A    between atoms: C_2  and  O_3 
REMARK    2  A    between atoms: C_2  and  C_28 
REMARK    3  A    between atoms: O_3  and  C_4 
REMARK    4  A    between atoms: C_5  and  C_18 
REMARK    5  A    between atoms: C_9  and  O_10 
REMARK    6  A    between atoms: C_13  and  O_16 
REMARK    7  A    between atoms: C_20  and  O_21 
REMARK    8  A    between atoms: C_23  and  O_24 
REMARK    9  A    between atoms: C_30  and  O_31 
REMARK   10  A    between atoms: C_33  and  O_34 
REMARK   11  A    between atoms: C_36  and  O_38 
ROOT
HETATM    1  C   UNK N   1      30.141  55.154  41.465  0.00  0.00     0.170 C 
HETATM    2  C   UNK N   1      30.443  53.794  40.828  0.00  0.00     0.192 C 
HETATM    3  O   UNK N   1      30.753  52.890  41.828  0.00  0.00    -0.338 OA
HETATM    4  C   UNK N   1      31.608  53.197  42.834  0.00  0.00     0.081 A 
HETATM    5  C   UNK N   1      32.140  52.173  43.616  0.00  0.00     0.074 A 
HETATM    6  C   UNK N   1      33.056  52.465  44.633  0.00  0.00     0.071 A 
HETATM    7  C   UNK N   1      33.439  53.791  44.867  0.00  0.00     0.073 A 
HETATM    8  C   UNK N   1      32.904  54.833  44.094  0.00  0.00     0.077 A 
HETATM    9  C   UNK N   1      31.973  54.541  43.083  0.00  0.00     0.011 A 
HETATM   10  C   UNK N   1      31.377  55.646  42.241  0.00  0.00     0.080 C 
ENDROOT
BRANCH   1  11
HETATM   11  O   UNK N   1      29.823  56.059  40.477  0.00  0.00    -0.309 OA
BRANCH  11  12
HETATM   12  C   UNK N   1      29.118  57.200  40.667  0.00  0.00     0.294 C 
HETATM   13  O   UNK N   1      29.593  58.286  40.367  0.00  0.00    -0.259 OA
BRANCH  12  14
HETATM   14  C   UNK N   1      27.761  57.104  41.242  0.00  0.00     0.045 A 
HETATM   15  C   UNK N   1      27.358  58.013  42.230  0.00  0.00     0.057 A 
HETATM   16  C   UNK N   1      26.086  57.932  42.796  0.00  0.00     0.102 A 
HETATM   17  C   UNK N   1      25.190  56.929  42.375  0.00  0.00     0.132 A 
HETATM   18  C   UNK N   1      25.586  56.020  41.359  0.00  0.00     0.102 A 
HETATM   19  C   UNK N   1      26.869  56.112  40.810  0.00  0.00     0.057 A 
BRANCH  16  20
HETATM   20  O   UNK N   1      25.742  58.822  43.750  0.00  0.00    -0.358 OA
HETATM   21  H   UNK N   1      26.353  59.497  44.077  0.00  0.00     0.218 HD
ENDBRANCH  16  20
BRANCH  17  22
HETATM   22  O   UNK N   1      23.974  56.861  42.963  0.00  0.00    -0.356 OA
HETATM   23  H   UNK N   1      23.831  56.599  43.880  0.00  0.00     0.218 HD
ENDBRANCH  17  22
BRANCH  18  24
HETATM   24  O   UNK N   1      24.763  55.059  40.885  0.00  0.00    -0.358 OA
HETATM   25  H   UNK N   1      23.819  55.016  41.075  0.00  0.00     0.218 HD
ENDBRANCH  18  24
ENDBRANCH  12  14
ENDBRANCH  11  12
ENDBRANCH   1  11
BRANCH   2  26
HETATM   26  C   UNK N   1      29.275  53.271  40.024  0.00  0.00    -0.024 A 
HETATM   27  C   UNK N   1      28.062  52.947  40.657  0.00  0.00     0.049 A 
HETATM   28  C   UNK N   1      26.980  52.460  39.914  0.00  0.00     0.099 A 
HETATM   29  C   UNK N   1      27.107  52.295  38.522  0.00  0.00     0.098 A 
HETATM   30  C   UNK N   1      28.316  52.620  37.891  0.00  0.00     0.040 A 
HETATM   31  C   UNK N   1      29.393  53.104  38.635  0.00  0.00     0.013 A 
BRANCH  28  32
HETATM   32  O   UNK N   1      25.830  52.156  40.551  0.00  0.00    -0.358 OA
HETATM   33  H   UNK N   1      25.215  51.488  40.218  0.00  0.00     0.218 HD
ENDBRANCH  28  32
BRANCH  29  34
HETATM   34  O   UNK N   1      26.069  51.823  37.800  0.00  0.00    -0.358 OA
HETATM   35  H   UNK N   1      26.069  50.927  37.435  0.00  0.00     0.218 HD
ENDBRANCH  29  34
ENDBRANCH   2  26
BRANCH   8  36
HETATM   36  O   UNK N   1      33.272  56.111  44.324  0.00  0.00    -0.360 OA
HETATM   37  H   UNK N   1      32.631  56.787  44.588  0.00  0.00     0.217 HD
ENDBRANCH   8  36
BRANCH   6  38
HETATM   38  O   UNK N   1      33.579  51.476  45.385  0.00  0.00    -0.361 OA
HETATM   39  H   UNK N   1      33.317  51.351  46.308  0.00  0.00     0.217 HD
ENDBRANCH   6  38
TORSDOF 11
ENDMDL
MODEL 4
REMARK VINA RESULT:      -7.0     11.260     17.182
REMARK  11 active torsions:
REMARK  status: ('A' for Active; 'I' for Inactive)
REMARK    1  A    between atoms: C_2  and  O_3 
REMARK    2  A    between atoms: C_2  and  C_28 
REMARK    3  A    between atoms: O_3  and  C_4 
REMARK    4  A    between atoms: C_5  and  C_18 
REMARK    5  A    between atoms: C_9  and  O_10 
REMARK    6  A    between atoms: C_13  and  O_16 
REMARK    7  A    between atoms: C_20  and  O_21 
REMARK    8  A    between atoms: C_23  and  O_24 
REMARK    9  A    between atoms: C_30  and  O_31 
REMARK   10  A    between atoms: C_33  and  O_34 
REMARK   11  A    between atoms: C_36  and  O_38 
ROOT
HETATM    1  C   UNK N   1      30.127  53.485  41.863  0.00  0.00     0.170 C 
HETATM    2  C   UNK N   1      30.680  52.763  40.630  0.00  0.00     0.192 C 
HETATM    3  O   UNK N   1      31.069  51.487  40.995  0.00  0.00    -0.338 OA
HETATM    4  C   UNK N   1      31.803  51.252  42.111  0.00  0.00     0.081 A 
HETATM    5  C   UNK N   1      32.443  50.023  42.261  0.00  0.00     0.074 A 
HETATM    6  C   UNK N   1      33.239  49.775  43.385  0.00  0.00     0.071 A 
HETATM    7  C   UNK N   1      33.391  50.764  44.364  0.00  0.00     0.073 A 
HETATM    8  C   UNK N   1      32.744  52.002  44.231  0.00  0.00     0.077 A 
HETATM    9  C   UNK N   1      31.933  52.246  43.108  0.00  0.00     0.011 A 
HETATM   10  C   UNK N   1      31.220  53.569  42.945  0.00  0.00     0.080 C 
ENDROOT
BRANCH   1  11
HETATM   11  O   UNK N   1      29.728  54.754  41.508  0.00  0.00    -0.309 OA
BRANCH  11  12
HETATM   12  C   UNK N   1      28.498  55.274  41.736  0.00  0.00     0.294 C 
HETATM   13  O   UNK N   1      28.187  55.679  42.847  0.00  0.00    -0.259 OA
BRANCH  12  14
HETATM   14  C   UNK N   1      27.542  55.343  40.613  0.00  0.00     0.045 A 
HETATM   15  C   UNK N   1      26.377  54.566  40.642  0.00  0.00     0.057 A 
HETATM   16  C   UNK N   1      25.467  54.605  39.586  0.00  0.00     0.102 A 
HETATM   17  C   UNK N   1      25.713  55.437  38.475  0.00  0.00     0.132 A 
HETATM   18  C   UNK N   1      26.881  56.243  38.451  0.00  0.00     0.102 A 
HETATM   19  C   UNK N   1      27.786  56.182  39.516  0.00  0.00     0.057 A 
BRANCH  16  20
HETATM   20  O   UNK N   1      24.362  53.833  39.651  0.00  0.00    -0.358 OA
HETATM   21  H   UNK N   1      23.736  53.760  38.917  0.00  0.00     0.218 HD
ENDBRANCH  16  20
BRANCH  17  22
HETATM   22  O   UNK N   1      24.825  55.432  37.456  0.00  0.00    -0.356 OA
HETATM   23  H   UNK N   1      24.112  56.075  37.358  0.00  0.00     0.218 HD
ENDBRANCH  17  22
BRANCH  18  24
HETATM   24  O   UNK N   1      27.158  57.088  37.434  0.00  0.00    -0.358 OA
HETATM   25  H   UNK N   1      26.528  57.327  36.744  0.00  0.00     0.218 HD
ENDBRANCH  18  24
ENDBRANCH  12  14
ENDBRANCH  11  12
ENDBRANCH   1  11
BRANCH   2  26
HETATM   26  C   UNK N   1      29.660  52.677  39.518  0.00  0.00    -0.024 A 
HETATM   27  C   UNK N   1      28.520  51.865  39.657  0.00  0.00     0.049 A 
HETATM   28  C   UNK N   1      27.576  51.783  38.627  0.00  0.00     0.099 A 
HETATM   29  C   UNK N   1      27.769  52.518  37.442  0.00  0.00     0.098 A 
HETATM   30  C   UNK N   1      28.904  53.329  37.305  0.00  0.00     0.040 A 
HETATM   31  C   UNK N   1      29.844  53.408  38.334  0.00  0.00     0.013 A 
BRANCH  28  32
HETATM   32  O   UNK N   1      26.493  50.993  38.790  0.00  0.00    -0.358 OA
HETATM   33  H   UNK N   1      25.605  51.354  38.916  0.00  0.00     0.218 HD
ENDBRANCH  28  32
BRANCH  29  34
HETATM   34  O   UNK N   1      26.864  52.441  36.444  0.00  0.00    -0.358 OA
HETATM   35  H   UNK N   1      26.368  53.216  36.145  0.00  0.00     0.218 HD
ENDBRANCH  29  34
ENDBRANCH   2  26
BRANCH   8  36
HETATM   36  O   UNK N   1      32.889  52.953  45.177  0.00  0.00    -0.360 OA
HETATM   37  H   UNK N   1      32.650  52.793  46.102  0.00  0.00     0.217 HD
ENDBRANCH   8  36
BRANCH   6  38
HETATM   38  O   UNK N   1      33.867  48.591  43.529  0.00  0.00    -0.361 OA
HETATM   39  H   UNK N   1      34.832  48.524  43.505  0.00  0.00     0.217 HD
ENDBRANCH   6  38
TORSDOF 11
ENDMDL
MODEL 5
REMARK VINA RESULT:      -7.0     10.938     16.611
REMARK  11 active torsions:
REMARK  status: ('A' for Active; 'I' for Inactive)
REMARK    1  A    between atoms: C_2  and  O_3 
REMARK    2  A    between atoms: C_2  and  C_28 
REMARK    3  A    between atoms: O_3  and  C_4 
REMARK    4  A    between atoms: C_5  and  C_18 
REMARK    5  A    between atoms: C_9  and  O_10 
REMARK    6  A    between atoms: C_13  and  O_16 
REMARK    7  A    between atoms: C_20  and  O_21 
REMARK    8  A    between atoms: C_23  and  O_24 
REMARK    9  A    between atoms: C_30  and  O_31 
REMARK   10  A    between atoms: C_33  and  O_34 
REMARK   11  A    between atoms: C_36  and  O_38 
ROOT
HETATM    1  C   UNK N   1      30.555  53.529  41.915  0.00  0.00     0.170 C 
HETATM    2  C   UNK N   1      30.970  52.698  40.696  0.00  0.00     0.192 C 
HETATM    3  O   UNK N   1      31.215  51.399  41.102  0.00  0.00    -0.338 OA
HETATM    4  C   UNK N   1      31.953  51.117  42.203  0.00  0.00     0.081 A 
HETATM    5  C   UNK N   1      32.444  49.825  42.384  0.00  0.00     0.074 A 
HETATM    6  C   UNK N   1      33.244  49.523  43.493  0.00  0.00     0.071 A 
HETATM    7  C   UNK N   1      33.550  50.523  44.424  0.00  0.00     0.073 A 
HETATM    8  C   UNK N   1      33.055  51.825  44.260  0.00  0.00     0.077 A 
HETATM    9  C   UNK N   1      32.240  52.124  43.154  0.00  0.00     0.011 A 
HETATM   10  C   UNK N   1      31.688  53.518  42.957  0.00  0.00     0.080 C 
ENDROOT
BRANCH   1  11
HETATM   11  O   UNK N   1      30.301  54.823  41.519  0.00  0.00    -0.309 OA
BRANCH  11  12
HETATM   12  C   UNK N   1      29.494  55.692  42.174  0.00  0.00     0.294 C 
HETATM   13  O   UNK N   1      29.947  56.453  43.017  0.00  0.00    -0.259 OA
BRANCH  12  14
HETATM   14  C   UNK N   1      28.054  55.700  41.848  0.00  0.00     0.045 A 
HETATM   15  C   UNK N   1      27.324  56.893  41.948  0.00  0.00     0.057 A 
HETATM   16  C   UNK N   1      25.961  56.921  41.658  0.00  0.00     0.102 A 
HETATM   17  C   UNK N   1      25.302  55.742  41.255  0.00  0.00     0.132 A 
HETATM   18  C   UNK N   1      26.041  54.537  41.130  0.00  0.00     0.102 A 
HETATM   19  C   UNK N   1      27.406  54.527  41.435  0.00  0.00     0.057 A 
BRANCH  16  20
HETATM   20  O   UNK N   1      25.295  58.089  41.776  0.00  0.00    -0.358 OA
HETATM   21  H   UNK N   1      25.582  58.898  41.329  0.00  0.00     0.218 HD
ENDBRANCH  16  20
BRANCH  17  22
HETATM   22  O   UNK N   1      23.974  55.797  41.005  0.00  0.00    -0.356 OA
HETATM   23  H   UNK N   1      23.482  55.108  40.543  0.00  0.00     0.218 HD
ENDBRANCH  17  22
BRANCH  18  24
HETATM   24  O   UNK N   1      25.478  53.380  40.714  0.00  0.00    -0.358 OA
HETATM   25  H   UNK N   1      24.534  53.192  40.762  0.00  0.00     0.218 HD
ENDBRANCH  18  24
ENDBRANCH  12  14
ENDBRANCH  11  12
ENDBRANCH   1  11
BRANCH   2  26
HETATM   26  C   UNK N   1      29.908  52.697  39.621  0.00  0.00    -0.024 A 
HETATM   27  C   UNK N   1      28.764  51.890  39.750  0.00  0.00     0.049 A 
HETATM   28  C   UNK N   1      27.781  51.885  38.754  0.00  0.00     0.099 A 
HETATM   29  C   UNK N   1      27.938  52.695  37.613  0.00  0.00     0.098 A 
HETATM   30  C   UNK N   1      29.079  53.501  37.486  0.00  0.00     0.040 A 
HETATM   31  C   UNK N   1      30.057  53.502  38.481  0.00  0.00     0.013 A 
BRANCH  28  32
HETATM   32  O   UNK N   1      26.695  51.098  38.906  0.00  0.00    -0.358 OA
HETATM   33  H   UNK N   1      26.698  50.161  38.665  0.00  0.00     0.218 HD
ENDBRANCH  28  32
BRANCH  29  34
HETATM   34  O   UNK N   1      26.996  52.693  36.648  0.00  0.00    -0.358 OA
HETATM   35  H   UNK N   1      27.194  52.408  35.744  0.00  0.00     0.218 HD
ENDBRANCH  29  34
ENDBRANCH   2  26
BRANCH   8  36
HETATM   36  O   UNK N   1      33.349  52.786  45.161  0.00  0.00    -0.360 OA
HETATM   37  H   UNK N   1      33.036  53.697  45.057  0.00  0.00     0.217 HD
ENDBRANCH   8  36
BRANCH   6  38
HETATM   38  O   UNK N   1      33.728  48.278  43.667  0.00  0.00    -0.361 OA
HETATM   39  H   UNK N   1      34.196  48.025  44.475  0.00  0.00     0.217 HD
ENDBRANCH   6  38
TORSDOF 11
ENDMDL
MODEL 6
REMARK VINA RESULT:      -6.9      0.934      2.067
REMARK  11 active torsions:
REMARK  status: ('A' for Active; 'I' for Inactive)
REMARK    1  A    between atoms: C_2  and  O_3 
REMARK    2  A    between atoms: C_2  and  C_28 
REMARK    3  A    between atoms: O_3  and  C_4 
REMARK    4  A    between atoms: C_5  and  C_18 
REMARK    5  A    between atoms: C_9  and  O_10 
REMARK    6  A    between atoms: C_13  and  O_16 
REMARK    7  A    between atoms: C_20  and  O_21 
REMARK    8  A    between atoms: C_23  and  O_24 
REMARK    9  A    between atoms: C_30  and  O_31 
REMARK   10  A    between atoms: C_33  and  O_34 
REMARK   11  A    between atoms: C_36  and  O_38 
ROOT
HETATM    1  C   UNK N   1      40.600  46.966  47.378  0.00  0.00     0.170 C 
HETATM    2  C   UNK N   1      40.191  46.114  46.172  0.00  0.00     0.192 C 
HETATM    3  O   UNK N   1      40.282  46.885  45.027  0.00  0.00    -0.338 OA
HETATM    4  C   UNK N   1      39.788  48.146  44.969  0.00  0.00     0.081 A 
HETATM    5  C   UNK N   1      39.606  48.752  43.727  0.00  0.00     0.074 A 
HETATM    6  C   UNK N   1      39.058  50.038  43.642  0.00  0.00     0.071 A 
HETATM    7  C   UNK N   1      38.691  50.717  44.810  0.00  0.00     0.073 A 
HETATM    8  C   UNK N   1      38.877  50.123  46.067  0.00  0.00     0.077 A 
HETATM    9  C   UNK N   1      39.442  48.838  46.153  0.00  0.00     0.011 A 
HETATM   10  C   UNK N   1      39.659  48.179  47.496  0.00  0.00     0.080 C 
ENDROOT
BRANCH   1  11
HETATM   11  O   UNK N   1      40.520  46.204  48.522  0.00  0.00    -0.309 OA
BRANCH  11  12
HETATM   12  C   UNK N   1      41.545  45.978  49.378  0.00  0.00     0.294 C 
HETATM   13  O   UNK N   1      42.682  46.332  49.100  0.00  0.00    -0.259 OA
BRANCH  12  14
HETATM   14  C   UNK N   1      41.259  45.297  50.657  0.00  0.00     0.045 A 
HETATM   15  C   UNK N   1      40.327  44.252  50.696  0.00  0.00     0.057 A 
HETATM   16  C   UNK N   1      40.032  43.604  51.895  0.00  0.00     0.102 A 
HETATM   17  C   UNK N   1      40.677  43.997  53.085  0.00  0.00     0.132 A 
HETATM   18  C   UNK N   1      41.639  45.040  53.046  0.00  0.00     0.102 A 
HETATM   19  C   UNK N   1      41.913  45.684  51.835  0.00  0.00     0.057 A 
BRANCH  16  20
HETATM   20  O   UNK N   1      39.122  42.608  51.889  0.00  0.00    -0.358 OA
HETATM   21  H   UNK N   1      38.296  42.661  51.387  0.00  0.00     0.218 HD
ENDBRANCH  16  20
BRANCH  17  22
HETATM   22  O   UNK N   1      40.350  43.366  54.235  0.00  0.00    -0.356 OA
HETATM   23  H   UNK N   1      39.824  43.764  54.939  0.00  0.00     0.218 HD
ENDBRANCH  17  22
BRANCH  18  24
HETATM   24  O   UNK N   1      42.319  45.440  54.144  0.00  0.00    -0.358 OA
HETATM   25  H   UNK N   1      42.003  45.323  55.047  0.00  0.00     0.218 HD
ENDBRANCH  18  24
ENDBRANCH  12  14
ENDBRANCH  11  12
ENDBRANCH   1  11
BRANCH   2  26
HETATM   26  C   UNK N   1      41.061  44.888  46.021  0.00  0.00    -0.024 A 
HETATM   27  C   UNK N   1      41.846  44.707  44.869  0.00  0.00     0.049 A 
HETATM   28  C   UNK N   1      42.650  43.571  44.728  0.00  0.00     0.099 A 
HETATM   29  C   UNK N   1      42.674  42.600  45.746  0.00  0.00     0.098 A 
HETATM   30  C   UNK N   1      41.892  42.781  46.896  0.00  0.00     0.040 A 
HETATM   31  C   UNK N   1      41.090  43.916  47.033  0.00  0.00     0.013 A 
BRANCH  28  32
HETATM   32  O   UNK N   1      43.392  43.426  43.608  0.00  0.00    -0.358 OA
HETATM   33  H   UNK N   1      43.103  42.880  42.864  0.00  0.00     0.218 HD
ENDBRANCH  28  32
BRANCH  29  34
HETATM   34  O   UNK N   1      43.445  41.500  45.615  0.00  0.00    -0.358 OA
HETATM   35  H   UNK N   1      43.423  40.957  44.815  0.00  0.00     0.218 HD
ENDBRANCH  29  34
ENDBRANCH   2  26
BRANCH   8  36
HETATM   36  O   UNK N   1      38.526  50.782  47.192  0.00  0.00    -0.360 OA
HETATM   37  H   UNK N   1      38.746  51.716  47.326  0.00  0.00     0.217 HD
ENDBRANCH   8  36
BRANCH   6  38
HETATM   38  O   UNK N   1      38.873  50.623  42.443  0.00  0.00    -0.361 OA
HETATM   39  H   UNK N   1      38.507  51.516  42.367  0.00  0.00     0.217 HD
ENDBRANCH   6  38
TORSDOF 11
ENDMDL
MODEL 7
REMARK VINA RESULT:      -6.9     13.122     15.373
REMARK  11 active torsions:
REMARK  status: ('A' for Active; 'I' for Inactive)
REMARK    1  A    between atoms: C_2  and  O_3 
REMARK    2  A    between atoms: C_2  and  C_28 
REMARK    3  A    between atoms: O_3  and  C_4 
REMARK    4  A    between atoms: C_5  and  C_18 
REMARK    5  A    between atoms: C_9  and  O_10 
REMARK    6  A    between atoms: C_13  and  O_16 
REMARK    7  A    between atoms: C_20  and  O_21 
REMARK    8  A    between atoms: C_23  and  O_24 
REMARK    9  A    between atoms: C_30  and  O_31 
REMARK   10  A    between atoms: C_33  and  O_34 
REMARK   11  A    between atoms: C_36  and  O_38 
ROOT
HETATM    1  C   UNK N   1      29.897  44.603  59.700  0.00  0.00     0.170 C 
HETATM    2  C   UNK N   1      29.246  44.843  58.335  0.00  0.00     0.192 C 
HETATM    3  O   UNK N   1      29.607  46.099  57.882  0.00  0.00    -0.338 OA
HETATM    4  C   UNK N   1      29.562  47.193  58.682  0.00  0.00     0.081 A 
HETATM    5  C   UNK N   1      29.612  48.462  58.109  0.00  0.00     0.074 A 
HETATM    6  C   UNK N   1      29.525  49.604  58.914  0.00  0.00     0.071 A 
HETATM    7  C   UNK N   1      29.389  49.470  60.301  0.00  0.00     0.073 A 
HETATM    8  C   UNK N   1      29.347  48.198  60.893  0.00  0.00     0.077 A 
HETATM    9  C   UNK N   1      29.449  47.052  60.085  0.00  0.00     0.011 A 
HETATM   10  C   UNK N   1      29.414  45.671  60.698  0.00  0.00     0.080 C 
ENDROOT
BRANCH   1  11
HETATM   11  O   UNK N   1      29.551  43.351  60.156  0.00  0.00    -0.309 OA
BRANCH  11  12
HETATM   12  C   UNK N   1      30.402  42.472  60.738  0.00  0.00     0.294 C 
HETATM   13  O   UNK N   1      29.985  41.445  61.254  0.00  0.00    -0.259 OA
BRANCH  12  14
HETATM   14  C   UNK N   1      31.846  42.781  60.735  0.00  0.00     0.045 A 
HETATM   15  C   UNK N   1      32.433  43.379  61.858  0.00  0.00     0.057 A 
HETATM   16  C   UNK N   1      33.792  43.692  61.871  0.00  0.00     0.102 A 
HETATM   17  C   UNK N   1      34.592  43.404  60.747  0.00  0.00     0.132 A 
HETATM   18  C   UNK N   1      34.006  42.778  59.616  0.00  0.00     0.102 A 
HETATM   19  C   UNK N   1      32.640  42.481  59.619  0.00  0.00     0.057 A 
BRANCH  16  20
HETATM   20  O   UNK N   1      34.314  44.274  62.971  0.00  0.00    -0.358 OA
HETATM   21  H   UNK N   1      34.316  43.843  63.837  0.00  0.00     0.218 HD
ENDBRANCH  16  20
BRANCH  17  22
HETATM   22  O   UNK N   1      35.900  43.743  60.781  0.00  0.00    -0.356 OA
HETATM   23  H   UNK N   1      36.500  43.657  60.032  0.00  0.00     0.218 HD
ENDBRANCH  17  22
BRANCH  18  24
HETATM   24  O   UNK N   1      34.724  42.442  58.521  0.00  0.00    -0.358 OA
HETATM   25  H   UNK N   1      35.352  41.711  58.491  0.00  0.00     0.218 HD
ENDBRANCH  18  24
ENDBRANCH  12  14
ENDBRANCH  11  12
ENDBRANCH   1  11
BRANCH   2  26
HETATM   26  C   UNK N   1      29.659  43.806  57.318  0.00  0.00    -0.024 A 
HETATM   27  C   UNK N   1      30.995  43.719  56.888  0.00  0.00     0.049 A 
HETATM   28  C   UNK N   1      31.379  42.760  55.944  0.00  0.00     0.099 A 
HETATM   29  C   UNK N   1      30.420  41.874  55.420  0.00  0.00     0.098 A 
HETATM   30  C   UNK N   1      29.088  41.958  55.849  0.00  0.00     0.040 A 
HETATM   31  C   UNK N   1      28.709  42.917  56.790  0.00  0.00     0.013 A 
BRANCH  28  32
HETATM   32  O   UNK N   1      32.669  42.704  55.551  0.00  0.00    -0.358 OA
HETATM   33  H   UNK N   1      32.989  43.159  54.760  0.00  0.00     0.218 HD
ENDBRANCH  28  32
BRANCH  29  34
HETATM   34  O   UNK N   1      30.782  40.948  54.507  0.00  0.00    -0.358 OA
HETATM   35  H   UNK N   1      30.495  41.005  53.585  0.00  0.00     0.218 HD
ENDBRANCH  29  34
ENDBRANCH   2  26
BRANCH   8  36
HETATM   36  O   UNK N   1      29.219  48.072  62.230  0.00  0.00    -0.360 OA
HETATM   37  H   UNK N   1      28.491  48.487  62.715  0.00  0.00     0.217 HD
ENDBRANCH   8  36
BRANCH   6  38
HETATM   38  O   UNK N   1      29.564  50.833  58.363  0.00  0.00    -0.361 OA
HETATM   39  H   UNK N   1      28.783  51.226  57.948  0.00  0.00     0.217 HD
ENDBRANCH   6  38
TORSDOF 11
ENDMDL
MODEL 8
REMARK VINA RESULT:      -6.8     11.683     18.047
REMARK  11 active torsions:
REMARK  status: ('A' for Active; 'I' for Inactive)
REMARK    1  A    between atoms: C_2  and  O_3 
REMARK    2  A    between atoms: C_2  and  C_28 
REMARK    3  A    between atoms: O_3  and  C_4 
REMARK    4  A    between atoms: C_5  and  C_18 
REMARK    5  A    between atoms: C_9  and  O_10 
REMARK    6  A    between atoms: C_13  and  O_16 
REMARK    7  A    between atoms: C_20  and  O_21 
REMARK    8  A    between atoms: C_23  and  O_24 
REMARK    9  A    between atoms: C_30  and  O_31 
REMARK   10  A    between atoms: C_33  and  O_34 
REMARK   11  A    between atoms: C_36  and  O_38 
ROOT
HETATM    1  C   UNK N   1      30.063  54.057  41.761  0.00  0.00     0.170 C 
HETATM    2  C   UNK N   1      29.567  55.151  42.713  0.00  0.00     0.192 C 
HETATM    3  O   UNK N   1      30.660  55.761  43.301  0.00  0.00    -0.338 OA
HETATM    4  C   UNK N   1      31.691  55.047  43.817  0.00  0.00     0.081 A 
HETATM    5  C   UNK N   1      32.591  55.671  44.678  0.00  0.00     0.074 A 
HETATM    6  C   UNK N   1      33.638  54.941  45.254  0.00  0.00     0.071 A 
HETATM    7  C   UNK N   1      33.782  53.580  44.962  0.00  0.00     0.073 A 
HETATM    8  C   UNK N   1      32.888  52.941  44.089  0.00  0.00     0.077 A 
HETATM    9  C   UNK N   1      31.846  53.677  43.500  0.00  0.00     0.011 A 
HETATM   10  C   UNK N   1      30.874  53.014  42.551  0.00  0.00     0.080 C 
ENDROOT
BRANCH   1  11
HETATM   11  O   UNK N   1      28.982  53.449  41.162  0.00  0.00    -0.309 OA
BRANCH  11  12
HETATM   12  C   UNK N   1      28.873  53.187  39.838  0.00  0.00     0.294 C 
HETATM   13  O   UNK N   1      29.015  52.049  39.412  0.00  0.00    -0.259 OA
BRANCH  12  14
HETATM   14  C   UNK N   1      28.576  54.304  38.919  0.00  0.00     0.045 A 
HETATM   15  C   UNK N   1      29.604  54.863  38.149  0.00  0.00     0.057 A 
HETATM   16  C   UNK N   1      29.349  55.927  37.285  0.00  0.00     0.102 A 
HETATM   17  C   UNK N   1      28.044  56.450  37.177  0.00  0.00     0.132 A 
HETATM   18  C   UNK N   1      26.995  55.872  37.939  0.00  0.00     0.102 A 
HETATM   19  C   UNK N   1      27.274  54.811  38.806  0.00  0.00     0.057 A 
BRANCH  16  20
HETATM   20  O   UNK N   1      30.370  56.442  36.568  0.00  0.00    -0.358 OA
HETATM   21  H   UNK N   1      31.278  56.118  36.650  0.00  0.00     0.218 HD
ENDBRANCH  16  20
BRANCH  17  22
HETATM   22  O   UNK N   1      27.835  57.499  36.350  0.00  0.00    -0.356 OA
HETATM   23  H   UNK N   1      28.538  57.977  35.895  0.00  0.00     0.218 HD
ENDBRANCH  17  22
BRANCH  18  24
HETATM   24  O   UNK N   1      25.717  56.301  37.854  0.00  0.00    -0.358 OA
HETATM   25  H   UNK N   1      24.951  55.766  38.093  0.00  0.00     0.218 HD
ENDBRANCH  18  24
ENDBRANCH  12  14
ENDBRANCH  11  12
ENDBRANCH   1  11
BRANCH   2  26
HETATM   26  C   UNK N   1      28.736  56.191  41.999  0.00  0.00    -0.024 A 
HETATM   27  C   UNK N   1      29.346  57.136  41.155  0.00  0.00     0.049 A 
HETATM   28  C   UNK N   1      28.578  58.102  40.496  0.00  0.00     0.099 A 
HETATM   29  C   UNK N   1      27.182  58.128  40.678  0.00  0.00     0.098 A 
HETATM   30  C   UNK N   1      26.573  57.185  41.517  0.00  0.00     0.040 A 
HETATM   31  C   UNK N   1      27.344  56.223  42.174  0.00  0.00     0.013 A 
BRANCH  28  32
HETATM   32  O   UNK N   1      29.194  58.997  39.694  0.00  0.00    -0.358 OA
HETATM   33  H   UNK N   1      28.714  59.711  39.252  0.00  0.00     0.218 HD
ENDBRANCH  28  32
BRANCH  29  34
HETATM   34  O   UNK N   1      26.436  59.059  40.047  0.00  0.00    -0.358 OA
HETATM   35  H   UNK N   1      26.569  60.005  40.197  0.00  0.00     0.218 HD
ENDBRANCH  29  34
ENDBRANCH   2  26
BRANCH   8  36
HETATM   36  O   UNK N   1      33.031  51.629  43.807  0.00  0.00    -0.360 OA
HETATM   37  H   UNK N   1      32.728  51.251  42.968  0.00  0.00     0.217 HD
ENDBRANCH   8  36
BRANCH   6  38
HETATM   38  O   UNK N   1      34.506  55.539  46.094  0.00  0.00    -0.361 OA
HETATM   39  H   UNK N   1      35.291  56.000  45.765  0.00  0.00     0.217 HD
ENDBRANCH   6  38
TORSDOF 11
ENDMDL
MODEL 9
REMARK VINA RESULT:      -6.7     13.792     16.193
REMARK  11 active torsions:
REMARK  status: ('A' for Active; 'I' for Inactive)
REMARK    1  A    between atoms: C_2  and  O_3 
REMARK    2  A    between atoms: C_2  and  C_28 
REMARK    3  A    between atoms: O_3  and  C_4 
REMARK    4  A    between atoms: C_5  and  C_18 
REMARK    5  A    between atoms: C_9  and  O_10 
REMARK    6  A    between atoms: C_13  and  O_16 
REMARK    7  A    between atoms: C_20  and  O_21 
REMARK    8  A    between atoms: C_23  and  O_24 
REMARK    9  A    between atoms: C_30  and  O_31 
REMARK   10  A    between atoms: C_33  and  O_34 
REMARK   11  A    between atoms: C_36  and  O_38 
ROOT
HETATM    1  C   UNK N   1      29.805  43.578  57.388  0.00  0.00     0.170 C 
HETATM    2  C   UNK N   1      30.013  42.527  58.484  0.00  0.00     0.192 C 
HETATM    3  O   UNK N   1      30.092  41.277  57.897  0.00  0.00    -0.338 OA
HETATM    4  C   UNK N   1      29.214  40.873  56.947  0.00  0.00     0.081 A 
HETATM    5  C   UNK N   1      29.125  39.519  56.629  0.00  0.00     0.074 A 
HETATM    6  C   UNK N   1      28.196  39.076  55.680  0.00  0.00     0.071 A 
HETATM    7  C   UNK N   1      27.353  39.997  55.047  0.00  0.00     0.073 A 
HETATM    8  C   UNK N   1      27.438  41.365  55.350  0.00  0.00     0.077 A 
HETATM    9  C   UNK N   1      28.382  41.811  56.292  0.00  0.00     0.011 A 
HETATM   10  C   UNK N   1      28.498  43.280  56.630  0.00  0.00     0.080 C 
ENDROOT
BRANCH   1  11
HETATM   11  O   UNK N   1      29.734  44.827  57.962  0.00  0.00    -0.309 OA
BRANCH  11  12
HETATM   12  C   UNK N   1      30.604  45.839  57.730  0.00  0.00     0.294 C 
HETATM   13  O   UNK N   1      31.677  45.628  57.184  0.00  0.00    -0.259 OA
BRANCH  12  14
HETATM   14  C   UNK N   1      30.228  47.204  58.150  0.00  0.00     0.045 A 
HETATM   15  C   UNK N   1      30.416  48.279  57.272  0.00  0.00     0.057 A 
HETATM   16  C   UNK N   1      30.080  49.578  57.653  0.00  0.00     0.102 A 
HETATM   17  C   UNK N   1      29.542  49.819  58.933  0.00  0.00     0.132 A 
HETATM   18  C   UNK N   1      29.329  48.730  59.818  0.00  0.00     0.102 A 
HETATM   19  C   UNK N   1      29.681  47.437  59.420  0.00  0.00     0.057 A 
BRANCH  16  20
HETATM   20  O   UNK N   1      30.285  50.585  56.779  0.00  0.00    -0.358 OA
HETATM   21  H   UNK N   1      30.144  51.513  57.013  0.00  0.00     0.218 HD
ENDBRANCH  16  20
BRANCH  17  22
HETATM   22  O   UNK N   1      29.251  51.093  59.281  0.00  0.00    -0.356 OA
HETATM   23  H   UNK N   1      29.519  51.500  60.114  0.00  0.00     0.218 HD
ENDBRANCH  17  22
BRANCH  18  24
HETATM   24  O   UNK N   1      28.784  48.888  61.044  0.00  0.00    -0.358 OA
HETATM   25  H   UNK N   1      29.074  49.550  61.683  0.00  0.00     0.218 HD
ENDBRANCH  18  24
ENDBRANCH  12  14
ENDBRANCH  11  12
ENDBRANCH   1  11
BRANCH   2  26
HETATM   26  C   UNK N   1      31.268  42.785  59.286  0.00  0.00    -0.024 A 
HETATM   27  C   UNK N   1      32.533  42.710  58.676  0.00  0.00     0.049 A 
HETATM   28  C   UNK N   1      33.695  42.946  59.418  0.00  0.00     0.099 A 
HETATM   29  C   UNK N   1      33.599  43.260  60.786  0.00  0.00     0.098 A 
HETATM   30  C   UNK N   1      32.338  43.336  61.395  0.00  0.00     0.040 A 
HETATM   31  C   UNK N   1      31.180  43.099  60.651  0.00  0.00     0.013 A 
BRANCH  28  32
HETATM   32  O   UNK N   1      34.895  42.865  58.803  0.00  0.00    -0.358 OA
HETATM   33  H   UNK N   1      35.172  43.497  58.125  0.00  0.00     0.218 HD
ENDBRANCH  28  32
BRANCH  29  34
HETATM   34  O   UNK N   1      34.717  43.485  61.508  0.00  0.00    -0.358 OA
HETATM   35  H   UNK N   1      35.599  43.383  61.125  0.00  0.00     0.218 HD
ENDBRANCH  29  34
ENDBRANCH   2  26
BRANCH   8  36
HETATM   36  O   UNK N   1      26.628  42.251  54.735  0.00  0.00    -0.360 OA
HETATM   37  H   UNK N   1      25.892  42.678  55.198  0.00  0.00     0.217 HD
ENDBRANCH   8  36
BRANCH   6  38
HETATM   38  O   UNK N   1      28.102  37.766  55.378  0.00  0.00    -0.361 OA
HETATM   39  H   UNK N   1      28.785  37.135  55.645  0.00  0.00     0.217 HD
ENDBRANCH   6  38
TORSDOF 11
ENDMDL
