MODEL 1
REMARK VINA RESULT:      -6.2      0.000      0.000
REMARK  11 active torsions:
REMARK  status: ('A' for Active; 'I' for Inactive)
REMARK    1  A    between atoms: C_6  and  C_8 
REMARK    2  A    between atoms: C_10  and  O_11 
REMARK    3  A    between atoms: C_13  and  O_14 
REMARK    4  A    between atoms: C_19  and  O_20 
REMARK    5  A    between atoms: O_20  and  C_21 
REMARK    6  A    between atoms: C_23  and  C_33 
REMARK    7  A    between atoms: C_24  and  O_25 
REMARK    8  A    between atoms: C_27  and  O_28 
REMARK    9  A    between atoms: C_30  and  O_31 
REMARK   10  A    between atoms: C_33  and  O_34 
REMARK   11  A    between atoms: C_37  and  O_38 
ROOT
HETATM    1  O   UNK N   1      31.240  43.336  60.861  0.00  0.00    -0.287 OA
HETATM    2  C   UNK N   1      30.722  43.900  59.919  0.00  0.00     0.190 A 
HETATM    3  C   UNK N   1      30.264  43.193  58.777  0.00  0.00     0.081 A 
HETATM    4  C   UNK N   1      29.674  43.962  57.739  0.00  0.00     0.095 A 
HETATM    5  O   UNK N   1      29.575  45.285  57.839  0.00  0.00    -0.309 OA
HETATM    6  C   UNK N   1      29.970  45.968  58.910  0.00  0.00     0.090 A 
HETATM    7  C   UNK N   1      30.555  45.284  59.984  0.00  0.00     0.094 A 
HETATM    8  C   UNK N   1      29.151  43.343  56.604  0.00  0.00     0.075 A 
HETATM    9  C   UNK N   1      29.173  41.958  56.473  0.00  0.00     0.077 A 
HETATM   10  C   UNK N   1      29.782  41.180  57.470  0.00  0.00     0.074 A 
HETATM   11  C   UNK N   1      30.338  41.769  58.613  0.00  0.00     0.085 A 
ENDROOT
BRANCH   9  12
HETATM   12  O   UNK N   1      28.562  41.406  55.392  0.00  0.00    -0.318 OA
BRANCH  12  13
HETATM   13  C   UNK N   1      28.239  42.088  54.231  0.00  0.00     0.298 C 
HETATM   14  O   UNK N   1      26.922  41.758  53.820  0.00  0.00    -0.348 OA
HETATM   15  C   UNK N   1      26.552  42.544  52.693  0.00  0.00     0.179 C 
HETATM   16  C   UNK N   1      27.444  42.194  51.473  0.00  0.00     0.180 C 
HETATM   17  C   UNK N   1      28.921  42.432  51.837  0.00  0.00     0.183 C 
HETATM   18  C   UNK N   1      29.249  41.686  53.139  0.00  0.00     0.205 C 
BRANCH  15  19
HETATM   19  C   UNK N   1      25.075  42.282  52.377  0.00  0.00     0.198 C 
BRANCH  19  20
HETATM   20  O   UNK N   1      24.491  43.447  51.864  0.00  0.00    -0.398 OA
HETATM   21  H   UNK N   1      24.772  44.183  52.468  0.00  0.00     0.209 HD
ENDBRANCH  19  20
ENDBRANCH  15  19
BRANCH  16  22
HETATM   22  O   UNK N   1      27.084  43.000  50.379  0.00  0.00    -0.390 OA
HETATM   23  H   UNK N   1      27.778  42.872  49.681  0.00  0.00     0.210 HD
ENDBRANCH  16  22
BRANCH  17  24
HETATM   24  O   UNK N   1      29.768  41.972  50.816  0.00  0.00    -0.390 OA
HETATM   25  H   UNK N   1      29.433  41.081  50.536  0.00  0.00     0.210 HD
ENDBRANCH  17  24
BRANCH  18  26
HETATM   26  O   UNK N   1      30.569  41.952  53.546  0.00  0.00    -0.388 OA
HETATM   27  H   UNK N   1      30.801  41.307  54.266  0.00  0.00     0.210 HD
ENDBRANCH  18  26
ENDBRANCH  12  13
ENDBRANCH   9  12
BRANCH  11  28
HETATM   28  O   UNK N   1      30.900  40.932  59.515  0.00  0.00    -0.360 OA
HETATM   29  H   UNK N   1      30.627  40.804  60.428  0.00  0.00     0.217 HD
ENDBRANCH  11  28
BRANCH   6  30
HETATM   30  C   UNK N   1      29.769  47.445  58.928  0.00  0.00     0.001 A 
HETATM   31  C   UNK N   1      29.955  48.183  57.745  0.00  0.00     0.054 A 
HETATM   32  C   UNK N   1      29.792  49.575  57.737  0.00  0.00     0.102 A 
HETATM   33  C   UNK N   1      29.406  50.240  58.907  0.00  0.00     0.099 A 
HETATM   34  C   UNK N   1      29.195  49.512  60.084  0.00  0.00     0.040 A 
HETATM   35  C   UNK N   1      29.385  48.127  60.101  0.00  0.00     0.017 A 
BRANCH  32  36
HETATM   36  O   UNK N   1      30.022  50.279  56.608  0.00  0.00    -0.353 OA
HETATM   37  C   UNK N   1      31.134  50.061  55.829  0.00  0.00     0.210 C 
ENDBRANCH  32  36
BRANCH  33  38
HETATM   38  O   UNK N   1      29.236  51.579  58.891  0.00  0.00    -0.358 OA
HETATM   39  H   UNK N   1      29.963  52.188  59.084  0.00  0.00     0.218 HD
ENDBRANCH  33  38
ENDBRANCH   6  30
TORSDOF 11
ENDMDL
MODEL 2
REMARK VINA RESULT:      -5.6     17.566     21.603
REMARK  11 active torsions:
REMARK  status: ('A' for Active; 'I' for Inactive)
REMARK    1  A    between atoms: C_6  and  C_8 
REMARK    2  A    between atoms: C_10  and  O_11 
REMARK    3  A    between atoms: C_13  and  O_14 
REMARK    4  A    between atoms: C_19  and  O_20 
REMARK    5  A    between atoms: O_20  and  C_21 
REMARK    6  A    between atoms: C_23  and  C_33 
REMARK    7  A    between atoms: C_24  and  O_25 
REMARK    8  A    between atoms: C_27  and  O_28 
REMARK    9  A    between atoms: C_30  and  O_31 
REMARK   10  A    between atoms: C_33  and  O_34 
REMARK   11  A    between atoms: C_37  and  O_38 
ROOT
HETATM    1  O   UNK N   1      45.377  59.244  58.357  0.00  0.00    -0.287 OA
HETATM    2  C   UNK N   1      46.056  58.242  58.261  0.00  0.00     0.190 A 
HETATM    3  C   UNK N   1      46.026  57.216  59.240  0.00  0.00     0.081 A 
HETATM    4  C   UNK N   1      46.864  56.091  59.018  0.00  0.00     0.095 A 
HETATM    5  O   UNK N   1      47.646  56.022  57.944  0.00  0.00    -0.309 OA
HETATM    6  C   UNK N   1      47.672  56.956  56.998  0.00  0.00     0.090 A 
HETATM    7  C   UNK N   1      46.869  58.096  57.136  0.00  0.00     0.094 A 
HETATM    8  C   UNK N   1      46.858  55.013  59.903  0.00  0.00     0.075 A 
HETATM    9  C   UNK N   1      46.015  55.004  61.010  0.00  0.00     0.077 A 
HETATM   10  C   UNK N   1      45.204  56.120  61.270  0.00  0.00     0.074 A 
HETATM   11  C   UNK N   1      45.201  57.230  60.414  0.00  0.00     0.085 A 
ENDROOT
BRANCH   9  12
HETATM   12  O   UNK N   1      45.983  53.887  61.782  0.00  0.00    -0.318 OA
BRANCH  12  13
HETATM   13  C   UNK N   1      45.776  52.602  61.309  0.00  0.00     0.298 C 
HETATM   14  O   UNK N   1      44.486  52.145  61.679  0.00  0.00    -0.348 OA
HETATM   15  C   UNK N   1      44.233  50.872  61.096  0.00  0.00     0.179 C 
HETATM   16  C   UNK N   1      45.206  49.811  61.673  0.00  0.00     0.180 C 
HETATM   17  C   UNK N   1      46.657  50.251  61.405  0.00  0.00     0.183 C 
HETATM   18  C   UNK N   1      46.855  51.685  61.916  0.00  0.00     0.205 C 
BRANCH  15  19
HETATM   19  C   UNK N   1      42.777  50.484  61.380  0.00  0.00     0.198 C 
BRANCH  19  20
HETATM   20  O   UNK N   1      42.207  49.928  60.228  0.00  0.00    -0.398 OA
HETATM   21  H   UNK N   1      41.399  50.472  60.033  0.00  0.00     0.209 HD
ENDBRANCH  19  20
ENDBRANCH  15  19
BRANCH  16  22
HETATM   22  O   UNK N   1      44.962  48.567  61.065  0.00  0.00    -0.390 OA
HETATM   23  H   UNK N   1      44.334  48.726  60.314  0.00  0.00     0.210 HD
ENDBRANCH  16  22
BRANCH  17  24
HETATM   24  O   UNK N   1      47.566  49.400  62.053  0.00  0.00    -0.390 OA
HETATM   25  H   UNK N   1      48.395  49.386  61.508  0.00  0.00     0.210 HD
ENDBRANCH  17  24
BRANCH  18  26
HETATM   26  O   UNK N   1      48.147  52.149  61.609  0.00  0.00    -0.388 OA
HETATM   27  H   UNK N   1      48.360  51.865  60.681  0.00  0.00     0.210 HD
ENDBRANCH  18  26
ENDBRANCH  12  13
ENDBRANCH   9  12
BRANCH  11  28
HETATM   28  O   UNK N   1      44.383  58.254  60.752  0.00  0.00    -0.360 OA
HETATM   29  H   UNK N   1      44.638  59.075  61.183  0.00  0.00     0.217 HD
ENDBRANCH  11  28
BRANCH   6  30
HETATM   30  C   UNK N   1      48.557  56.750  55.817  0.00  0.00     0.001 A 
HETATM   31  C   UNK N   1      49.480  55.688  55.820  0.00  0.00     0.054 A 
HETATM   32  C   UNK N   1      50.339  55.483  54.731  0.00  0.00     0.102 A 
HETATM   33  C   UNK N   1      50.259  56.319  53.611  0.00  0.00     0.099 A 
HETATM   34  C   UNK N   1      49.328  57.364  53.587  0.00  0.00     0.040 A 
HETATM   35  C   UNK N   1      48.490  57.588  54.684  0.00  0.00     0.017 A 
BRANCH  32  36
HETATM   36  O   UNK N   1      51.255  54.492  54.767  0.00  0.00    -0.353 OA
HETATM   37  C   UNK N   1      51.215  53.498  55.716  0.00  0.00     0.210 C 
ENDBRANCH  32  36
BRANCH  33  38
HETATM   38  O   UNK N   1      51.077  56.107  52.559  0.00  0.00    -0.358 OA
HETATM   39  H   UNK N   1      50.877  56.456  51.678  0.00  0.00     0.218 HD
ENDBRANCH  33  38
ENDBRANCH   6  30
TORSDOF 11
ENDMDL
MODEL 3
REMARK VINA RESULT:      -5.6      1.590      8.383
REMARK  11 active torsions:
REMARK  status: ('A' for Active; 'I' for Inactive)
REMARK    1  A    between atoms: C_6  and  C_8 
REMARK    2  A    between atoms: C_10  and  O_11 
REMARK    3  A    between atoms: C_13  and  O_14 
REMARK    4  A    between atoms: C_19  and  O_20 
REMARK    5  A    between atoms: O_20  and  C_21 
REMARK    6  A    between atoms: C_23  and  C_33 
REMARK    7  A    between atoms: C_24  and  O_25 
REMARK    8  A    between atoms: C_27  and  O_28 
REMARK    9  A    between atoms: C_30  and  O_31 
REMARK   10  A    between atoms: C_33  and  O_34 
REMARK   11  A    between atoms: C_37  and  O_38 
ROOT
HETATM    1  O   UNK N   1      29.841  39.965  58.487  0.00  0.00    -0.287 OA
HETATM    2  C   UNK N   1      29.671  40.935  57.776  0.00  0.00     0.190 A 
HETATM    3  C   UNK N   1      29.818  42.259  58.263  0.00  0.00     0.081 A 
HETATM    4  C   UNK N   1      29.595  43.312  57.337  0.00  0.00     0.095 A 
HETATM    5  O   UNK N   1      29.251  43.055  56.078  0.00  0.00    -0.309 OA
HETATM    6  C   UNK N   1      29.136  41.824  55.589  0.00  0.00     0.090 A 
HETATM    7  C   UNK N   1      29.347  40.726  56.435  0.00  0.00     0.094 A 
HETATM    8  C   UNK N   1      29.768  44.643  57.717  0.00  0.00     0.075 A 
HETATM    9  C   UNK N   1      30.185  44.969  59.004  0.00  0.00     0.077 A 
HETATM   10  C   UNK N   1      30.377  43.947  59.947  0.00  0.00     0.074 A 
HETATM   11  C   UNK N   1      30.191  42.600  59.606  0.00  0.00     0.085 A 
ENDROOT
BRANCH   9  12
HETATM   12  O   UNK N   1      30.429  46.275  59.288  0.00  0.00    -0.318 OA
BRANCH  12  13
HETATM   13  C   UNK N   1      29.735  47.345  58.752  0.00  0.00     0.298 C 
HETATM   14  O   UNK N   1      30.561  48.062  57.850  0.00  0.00    -0.348 OA
HETATM   15  C   UNK N   1      29.811  49.093  57.215  0.00  0.00     0.179 C 
HETATM   16  C   UNK N   1      29.356  50.149  58.256  0.00  0.00     0.180 C 
HETATM   17  C   UNK N   1      28.515  49.460  59.346  0.00  0.00     0.183 C 
HETATM   18  C   UNK N   1      29.295  48.263  59.909  0.00  0.00     0.205 C 
BRANCH  15  19
HETATM   19  C   UNK N   1      30.685  49.738  56.134  0.00  0.00     0.198 C 
BRANCH  19  20
HETATM   20  O   UNK N   1      29.884  50.119  55.050  0.00  0.00    -0.398 OA
HETATM   21  H   UNK N   1      30.419  49.931  54.234  0.00  0.00     0.209 HD
ENDBRANCH  19  20
ENDBRANCH  15  19
BRANCH  16  22
HETATM   22  O   UNK N   1      28.593  51.142  57.618  0.00  0.00    -0.390 OA
HETATM   23  H   UNK N   1      28.433  50.836  56.688  0.00  0.00     0.210 HD
ENDBRANCH  16  22
BRANCH  17  24
HETATM   24  O   UNK N   1      28.222  50.352  60.391  0.00  0.00    -0.390 OA
HETATM   25  H   UNK N   1      29.031  50.411  60.962  0.00  0.00     0.210 HD
ENDBRANCH  17  24
BRANCH  18  26
HETATM   26  O   UNK N   1      28.519  47.560  60.848  0.00  0.00    -0.388 OA
HETATM   27  H   UNK N   1      28.153  48.220  61.495  0.00  0.00     0.210 HD
ENDBRANCH  18  26
ENDBRANCH  12  13
ENDBRANCH   9  12
BRANCH  11  28
HETATM   28  O   UNK N   1      30.403  41.691  60.586  0.00  0.00    -0.360 OA
HETATM   29  H   UNK N   1      31.007  41.777  61.329  0.00  0.00     0.217 HD
ENDBRANCH  11  28
BRANCH   6  30
HETATM   30  C   UNK N   1      28.788  41.658  54.149  0.00  0.00     0.001 A 
HETATM   31  C   UNK N   1      27.737  40.795  53.787  0.00  0.00     0.054 A 
HETATM   32  C   UNK N   1      27.402  40.604  52.439  0.00  0.00     0.102 A 
HETATM   33  C   UNK N   1      28.092  41.302  51.441  0.00  0.00     0.099 A 
HETATM   34  C   UNK N   1      29.124  42.180  51.792  0.00  0.00     0.040 A 
HETATM   35  C   UNK N   1      29.480  42.351  53.134  0.00  0.00     0.017 A 
BRANCH  32  36
HETATM   36  O   UNK N   1      26.425  39.736  52.100  0.00  0.00    -0.353 OA
HETATM   37  C   UNK N   1      25.127  39.899  52.524  0.00  0.00     0.210 C 
ENDBRANCH  32  36
BRANCH  33  38
HETATM   38  O   UNK N   1      27.755  41.126  50.146  0.00  0.00    -0.358 OA
HETATM   39  H   UNK N   1      27.165  41.739  49.684  0.00  0.00     0.218 HD
ENDBRANCH  33  38
ENDBRANCH   6  30
TORSDOF 11
ENDMDL
MODEL 4
REMARK VINA RESULT:      -5.5      2.026      8.652
REMARK  11 active torsions:
REMARK  status: ('A' for Active; 'I' for Inactive)
REMARK    1  A    between atoms: C_6  and  C_8 
REMARK    2  A    between atoms: C_10  and  O_11 
REMARK    3  A    between atoms: C_13  and  O_14 
REMARK    4  A    between atoms: C_19  and  O_20 
REMARK    5  A    between atoms: O_20  and  C_21 
REMARK    6  A    between atoms: C_23  and  C_33 
REMARK    7  A    between atoms: C_24  and  O_25 
REMARK    8  A    between atoms: C_27  and  O_28 
REMARK    9  A    between atoms: C_30  and  O_31 
REMARK   10  A    between atoms: C_33  and  O_34 
REMARK   11  A    between atoms: C_37  and  O_38 
ROOT
HETATM    1  O   UNK N   1      32.587  42.576  55.626  0.00  0.00    -0.287 OA
HETATM    2  C   UNK N   1      31.387  42.645  55.796  0.00  0.00     0.190 A 
HETATM    3  C   UNK N   1      30.817  43.434  56.829  0.00  0.00     0.081 A 
HETATM    4  C   UNK N   1      29.401  43.436  56.928  0.00  0.00     0.095 A 
HETATM    5  O   UNK N   1      28.655  42.715  56.094  0.00  0.00    -0.309 OA
HETATM    6  C   UNK N   1      29.162  41.990  55.101  0.00  0.00     0.090 A 
HETATM    7  C   UNK N   1      30.552  41.941  54.928  0.00  0.00     0.094 A 
HETATM    8  C   UNK N   1      28.755  44.224  57.880  0.00  0.00     0.075 A 
HETATM    9  C   UNK N   1      29.482  45.045  58.738  0.00  0.00     0.077 A 
HETATM   10  C   UNK N   1      30.884  45.032  58.682  0.00  0.00     0.074 A 
HETATM   11  C   UNK N   1      31.567  44.236  57.753  0.00  0.00     0.085 A 
ENDROOT
BRANCH   9  12
HETATM   12  O   UNK N   1      28.795  45.862  59.579  0.00  0.00    -0.318 OA
BRANCH  12  13
HETATM   13  C   UNK N   1      28.627  47.224  59.398  0.00  0.00     0.298 C 
HETATM   14  O   UNK N   1      29.291  47.647  58.218  0.00  0.00    -0.348 OA
HETATM   15  C   UNK N   1      29.023  49.023  57.974  0.00  0.00     0.179 C 
HETATM   16  C   UNK N   1      29.627  49.900  59.102  0.00  0.00     0.180 C 
HETATM   17  C   UNK N   1      29.037  49.466  60.456  0.00  0.00     0.183 C 
HETATM   18  C   UNK N   1      29.214  47.949  60.624  0.00  0.00     0.205 C 
BRANCH  15  19
HETATM   19  C   UNK N   1      29.619  49.404  56.614  0.00  0.00     0.198 C 
BRANCH  19  20
HETATM   20  O   UNK N   1      30.824  50.090  56.805  0.00  0.00    -0.398 OA
HETATM   21  H   UNK N   1      30.710  50.618  57.639  0.00  0.00     0.209 HD
ENDBRANCH  19  20
ENDBRANCH  15  19
BRANCH  16  22
HETATM   22  O   UNK N   1      29.328  51.252  58.860  0.00  0.00    -0.390 OA
HETATM   23  H   UNK N   1      28.662  51.531  59.541  0.00  0.00     0.210 HD
ENDBRANCH  16  22
BRANCH  17  24
HETATM   24  O   UNK N   1      29.680  50.125  61.516  0.00  0.00    -0.390 OA
HETATM   25  H   UNK N   1      30.297  50.791  61.116  0.00  0.00     0.210 HD
ENDBRANCH  17  24
BRANCH  18  26
HETATM   26  O   UNK N   1      28.609  47.506  61.814  0.00  0.00    -0.388 OA
HETATM   27  H   UNK N   1      27.668  47.263  61.604  0.00  0.00     0.210 HD
ENDBRANCH  18  26
ENDBRANCH  12  13
ENDBRANCH   9  12
BRANCH  11  28
HETATM   28  O   UNK N   1      32.918  44.296  57.779  0.00  0.00    -0.360 OA
HETATM   29  H   UNK N   1      33.529  43.699  57.338  0.00  0.00     0.217 HD
ENDBRANCH  11  28
BRANCH   6  30
HETATM   30  C   UNK N   1      28.226  41.258  54.202  0.00  0.00     0.001 A 
HETATM   31  C   UNK N   1      27.437  41.981  53.289  0.00  0.00     0.054 A 
HETATM   32  C   UNK N   1      26.533  41.320  52.445  0.00  0.00     0.102 A 
HETATM   33  C   UNK N   1      26.434  39.924  52.483  0.00  0.00     0.099 A 
HETATM   34  C   UNK N   1      27.232  39.194  53.372  0.00  0.00     0.040 A 
HETATM   35  C   UNK N   1      28.113  39.852  54.234  0.00  0.00     0.017 A 
BRANCH  32  36
HETATM   36  O   UNK N   1      25.745  42.027  51.607  0.00  0.00    -0.353 OA
HETATM   37  C   UNK N   1      26.268  42.848  50.635  0.00  0.00     0.210 C 
ENDBRANCH  32  36
BRANCH  33  38
HETATM   38  O   UNK N   1      25.574  39.292  51.658  0.00  0.00    -0.358 OA
HETATM   39  H   UNK N   1      25.082  39.766  50.972  0.00  0.00     0.218 HD
ENDBRANCH  33  38
ENDBRANCH   6  30
TORSDOF 11
ENDMDL
MODEL 5
REMARK VINA RESULT:      -5.4      2.174      3.315
REMARK  11 active torsions:
REMARK  status: ('A' for Active; 'I' for Inactive)
REMARK    1  A    between atoms: C_6  and  C_8 
REMARK    2  A    between atoms: C_10  and  O_11 
REMARK    3  A    between atoms: C_13  and  O_14 
REMARK    4  A    between atoms: C_19  and  O_20 
REMARK    5  A    between atoms: O_20  and  C_21 
REMARK    6  A    between atoms: C_23  and  C_33 
REMARK    7  A    between atoms: C_24  and  O_25 
REMARK    8  A    between atoms: C_27  and  O_28 
REMARK    9  A    between atoms: C_30  and  O_31 
REMARK   10  A    between atoms: C_33  and  O_34 
REMARK   11  A    between atoms: C_37  and  O_38 
ROOT
HETATM    1  O   UNK N   1      30.676  43.420  61.332  0.00  0.00    -0.287 OA
HETATM    2  C   UNK N   1      30.443  43.956  60.267  0.00  0.00     0.190 A 
HETATM    3  C   UNK N   1      30.338  43.216  59.060  0.00  0.00     0.081 A 
HETATM    4  C   UNK N   1      30.061  43.953  57.878  0.00  0.00     0.095 A 
HETATM    5  O   UNK N   1      29.925  45.276  57.912  0.00  0.00    -0.309 OA
HETATM    6  C   UNK N   1      29.991  45.989  59.033  0.00  0.00     0.090 A 
HETATM    7  C   UNK N   1      30.252  45.338  60.246  0.00  0.00     0.094 A 
HETATM    8  C   UNK N   1      29.890  43.301  56.657  0.00  0.00     0.075 A 
HETATM    9  C   UNK N   1      29.961  41.913  56.573  0.00  0.00     0.077 A 
HETATM   10  C   UNK N   1      30.268  41.167  57.722  0.00  0.00     0.074 A 
HETATM   11  C   UNK N   1      30.469  41.791  58.960  0.00  0.00     0.085 A 
ENDROOT
BRANCH   9  12
HETATM   12  O   UNK N   1      29.690  41.328  55.377  0.00  0.00    -0.318 OA
BRANCH  12  13
HETATM   13  C   UNK N   1      29.064  40.104  55.218  0.00  0.00     0.298 C 
HETATM   14  O   UNK N   1      30.028  39.083  55.021  0.00  0.00    -0.348 OA
HETATM   15  C   UNK N   1      29.389  37.812  54.971  0.00  0.00     0.179 C 
HETATM   16  C   UNK N   1      28.461  37.721  53.732  0.00  0.00     0.180 C 
HETATM   17  C   UNK N   1      27.416  38.850  53.794  0.00  0.00     0.183 C 
HETATM   18  C   UNK N   1      28.132  40.194  53.995  0.00  0.00     0.205 C 
BRANCH  15  19
HETATM   19  C   UNK N   1      30.468  36.724  54.922  0.00  0.00     0.198 C 
BRANCH  19  20
HETATM   20  O   UNK N   1      31.494  37.120  54.054  0.00  0.00    -0.398 OA
HETATM   21  H   UNK N   1      32.132  36.360  54.019  0.00  0.00     0.209 HD
ENDBRANCH  19  20
ENDBRANCH  15  19
BRANCH  16  22
HETATM   22  O   UNK N   1      27.817  36.472  53.715  0.00  0.00    -0.390 OA
HETATM   23  H   UNK N   1      27.591  36.246  54.654  0.00  0.00     0.210 HD
ENDBRANCH  16  22
BRANCH  17  24
HETATM   24  O   UNK N   1      26.663  38.901  52.611  0.00  0.00    -0.390 OA
HETATM   25  H   UNK N   1      25.995  39.627  52.718  0.00  0.00     0.210 HD
ENDBRANCH  17  24
BRANCH  18  26
HETATM   26  O   UNK N   1      27.200  41.238  54.142  0.00  0.00    -0.388 OA
HETATM   27  H   UNK N   1      26.784  41.401  53.254  0.00  0.00     0.210 HD
ENDBRANCH  18  26
ENDBRANCH  12  13
ENDBRANCH   9  12
BRANCH  11  28
HETATM   28  O   UNK N   1      30.759  40.983  60.007  0.00  0.00    -0.360 OA
HETATM   29  H   UNK N   1      31.634  40.772  60.345  0.00  0.00     0.217 HD
ENDBRANCH  11  28
BRANCH   6  30
HETATM   30  C   UNK N   1      29.778  47.461  58.955  0.00  0.00     0.001 A 
HETATM   31  C   UNK N   1      29.966  48.123  57.728  0.00  0.00     0.054 A 
HETATM   32  C   UNK N   1      29.792  49.511  57.630  0.00  0.00     0.102 A 
HETATM   33  C   UNK N   1      29.395  50.247  58.752  0.00  0.00     0.099 A 
HETATM   34  C   UNK N   1      29.183  49.594  59.973  0.00  0.00     0.040 A 
HETATM   35  C   UNK N   1      29.383  48.215  60.080  0.00  0.00     0.017 A 
BRANCH  32  36
HETATM   36  O   UNK N   1      30.024  50.143  56.459  0.00  0.00    -0.353 OA
HETATM   37  C   UNK N   1      31.153  49.901  55.712  0.00  0.00     0.210 C 
ENDBRANCH  32  36
BRANCH  33  38
HETATM   38  O   UNK N   1      29.215  51.580  58.649  0.00  0.00    -0.358 OA
HETATM   39  H   UNK N   1      28.381  51.960  58.337  0.00  0.00     0.218 HD
ENDBRANCH  33  38
ENDBRANCH   6  30
TORSDOF 11
ENDMDL
MODEL 6
REMARK VINA RESULT:      -5.3     18.042     21.552
REMARK  11 active torsions:
REMARK  status: ('A' for Active; 'I' for Inactive)
REMARK    1  A    between atoms: C_6  and  C_8 
REMARK    2  A    between atoms: C_10  and  O_11 
REMARK    3  A    between atoms: C_13  and  O_14 
REMARK    4  A    between atoms: C_19  and  O_20 
REMARK    5  A    between atoms: O_20  and  C_21 
REMARK    6  A    between atoms: C_23  and  C_33 
REMARK    7  A    between atoms: C_24  and  O_25 
REMARK    8  A    between atoms: C_27  and  O_28 
REMARK    9  A    between atoms: C_30  and  O_31 
REMARK   10  A    between atoms: C_33  and  O_34 
REMARK   11  A    between atoms: C_37  and  O_38 
ROOT
HETATM    1  O   UNK N   1      49.268  48.945  60.284  0.00  0.00    -0.287 OA
HETATM    2  C   UNK N   1      48.682  49.986  60.505  0.00  0.00     0.190 A 
HETATM    3  C   UNK N   1      49.108  51.221  59.952  0.00  0.00     0.081 A 
HETATM    4  C   UNK N   1      48.341  52.371  60.281  0.00  0.00     0.095 A 
HETATM    5  O   UNK N   1      47.285  52.281  61.085  0.00  0.00    -0.309 OA
HETATM    6  C   UNK N   1      46.849  51.133  61.594  0.00  0.00     0.090 A 
HETATM    7  C   UNK N   1      47.543  49.949  61.311  0.00  0.00     0.094 A 
HETATM    8  C   UNK N   1      48.658  53.616  59.739  0.00  0.00     0.075 A 
HETATM    9  C   UNK N   1      49.715  53.757  58.846  0.00  0.00     0.077 A 
HETATM   10  C   UNK N   1      50.508  52.643  58.533  0.00  0.00     0.074 A 
HETATM   11  C   UNK N   1      50.233  51.380  59.076  0.00  0.00     0.085 A 
ENDROOT
BRANCH   9  12
HETATM   12  O   UNK N   1      49.915  54.975  58.276  0.00  0.00    -0.318 OA
BRANCH  12  13
HETATM   13  C   UNK N   1      49.337  55.401  57.093  0.00  0.00     0.298 C 
HETATM   14  O   UNK N   1      50.337  55.621  56.111  0.00  0.00    -0.348 OA
HETATM   15  C   UNK N   1      49.733  55.949  54.865  0.00  0.00     0.179 C 
HETATM   16  C   UNK N   1      48.979  57.300  54.968  0.00  0.00     0.180 C 
HETATM   17  C   UNK N   1      47.915  57.205  56.077  0.00  0.00     0.183 C 
HETATM   18  C   UNK N   1      48.574  56.709  57.372  0.00  0.00     0.205 C 
BRANCH  15  19
HETATM   19  C   UNK N   1      50.829  56.019  53.794  0.00  0.00     0.198 C 
BRANCH  19  20
HETATM   20  O   UNK N   1      50.254  55.876  52.525  0.00  0.00    -0.398 OA
HETATM   21  H   UNK N   1      49.446  55.312  52.653  0.00  0.00     0.209 HD
ENDBRANCH  19  20
ENDBRANCH  15  19
BRANCH  16  22
HETATM   22  O   UNK N   1      48.364  57.592  53.738  0.00  0.00    -0.390 OA
HETATM   23  H   UNK N   1      48.965  57.257  53.023  0.00  0.00     0.210 HD
ENDBRANCH  16  22
BRANCH  17  24
HETATM   24  O   UNK N   1      47.323  58.457  56.310  0.00  0.00    -0.390 OA
HETATM   25  H   UNK N   1      47.319  58.601  57.292  0.00  0.00     0.210 HD
ENDBRANCH  17  24
BRANCH  18  26
HETATM   26  O   UNK N   1      47.612  56.530  58.383  0.00  0.00    -0.388 OA
HETATM   27  H   UNK N   1      48.085  56.215  59.199  0.00  0.00     0.210 HD
ENDBRANCH  18  26
ENDBRANCH  12  13
ENDBRANCH   9  12
BRANCH  11  28
HETATM   28  O   UNK N   1      51.056  50.370  58.710  0.00  0.00    -0.360 OA
HETATM   29  H   UNK N   1      51.035  49.465  59.036  0.00  0.00     0.217 HD
ENDBRANCH  11  28
BRANCH   6  30
HETATM   30  C   UNK N   1      45.627  51.149  62.447  0.00  0.00     0.001 A 
HETATM   31  C   UNK N   1      44.374  50.879  61.866  0.00  0.00     0.054 A 
HETATM   32  C   UNK N   1      43.206  50.907  62.641  0.00  0.00     0.102 A 
HETATM   33  C   UNK N   1      43.283  51.172  64.013  0.00  0.00     0.099 A 
HETATM   34  C   UNK N   1      44.528  51.418  64.606  0.00  0.00     0.040 A 
HETATM   35  C   UNK N   1      45.691  51.419  63.830  0.00  0.00     0.017 A 
BRANCH  32  36
HETATM   36  O   UNK N   1      42.004  50.696  62.064  0.00  0.00    -0.353 OA
HETATM   37  C   UNK N   1      41.874  49.988  60.892  0.00  0.00     0.210 C 
ENDBRANCH  32  36
BRANCH  33  38
HETATM   38  O   UNK N   1      42.158  51.182  64.757  0.00  0.00    -0.358 OA
HETATM   39  H   UNK N   1      42.002  50.531  65.457  0.00  0.00     0.218 HD
ENDBRANCH  33  38
ENDBRANCH   6  30
TORSDOF 11
ENDMDL
MODEL 7
REMARK VINA RESULT:      -5.3     17.802     20.840
REMARK  11 active torsions:
REMARK  status: ('A' for Active; 'I' for Inactive)
REMARK    1  A    between atoms: C_6  and  C_8 
REMARK    2  A    between atoms: C_10  and  O_11 
REMARK    3  A    between atoms: C_13  and  O_14 
REMARK    4  A    between atoms: C_19  and  O_20 
REMARK    5  A    between atoms: O_20  and  C_21 
REMARK    6  A    between atoms: C_23  and  C_33 
REMARK    7  A    between atoms: C_24  and  O_25 
REMARK    8  A    between atoms: C_27  and  O_28 
REMARK    9  A    between atoms: C_30  and  O_31 
REMARK   10  A    between atoms: C_33  and  O_34 
REMARK   11  A    between atoms: C_37  and  O_38 
ROOT
HETATM    1  O   UNK N   1      46.509  47.742  60.468  0.00  0.00    -0.287 OA
HETATM    2  C   UNK N   1      46.637  48.914  60.763  0.00  0.00     0.190 A 
HETATM    3  C   UNK N   1      47.813  49.644  60.449  0.00  0.00     0.081 A 
HETATM    4  C   UNK N   1      47.845  51.008  60.844  0.00  0.00     0.095 A 
HETATM    5  O   UNK N   1      46.820  51.558  61.490  0.00  0.00    -0.309 OA
HETATM    6  C   UNK N   1      45.697  50.904  61.770  0.00  0.00     0.090 A 
HETATM    7  C   UNK N   1      45.579  49.555  61.407  0.00  0.00     0.094 A 
HETATM    8  C   UNK N   1      48.939  51.813  60.530  0.00  0.00     0.075 A 
HETATM    9  C   UNK N   1      50.013  51.307  59.803  0.00  0.00     0.077 A 
HETATM   10  C   UNK N   1      50.018  49.953  59.433  0.00  0.00     0.074 A 
HETATM   11  C   UNK N   1      48.946  49.109  59.751  0.00  0.00     0.085 A 
ENDROOT
BRANCH   9  12
HETATM   12  O   UNK N   1      51.005  52.163  59.444  0.00  0.00    -0.318 OA
BRANCH  12  13
HETATM   13  C   UNK N   1      50.899  53.130  58.460  0.00  0.00     0.298 C 
HETATM   14  O   UNK N   1      49.604  53.707  58.477  0.00  0.00    -0.348 OA
HETATM   15  C   UNK N   1      49.534  54.778  57.541  0.00  0.00     0.179 C 
HETATM   16  C   UNK N   1      49.707  54.244  56.095  0.00  0.00     0.180 C 
HETATM   17  C   UNK N   1      51.057  53.513  55.982  0.00  0.00     0.183 C 
HETATM   18  C   UNK N   1      51.162  52.462  57.097  0.00  0.00     0.205 C 
BRANCH  15  19
HETATM   19  C   UNK N   1      48.180  55.479  57.702  0.00  0.00     0.198 C 
BRANCH  19  20
HETATM   20  O   UNK N   1      47.179  54.713  57.092  0.00  0.00    -0.398 OA
HETATM   21  H   UNK N   1      47.651  54.000  56.586  0.00  0.00     0.209 HD
ENDBRANCH  19  20
ENDBRANCH  15  19
BRANCH  16  22
HETATM   22  O   UNK N   1      49.665  55.317  55.188  0.00  0.00    -0.390 OA
HETATM   23  H   UNK N   1      49.107  56.026  55.599  0.00  0.00     0.210 HD
ENDBRANCH  16  22
BRANCH  17  24
HETATM   24  O   UNK N   1      51.178  52.877  54.735  0.00  0.00    -0.390 OA
HETATM   25  H   UNK N   1      51.964  53.274  54.278  0.00  0.00     0.210 HD
ENDBRANCH  17  24
BRANCH  18  26
HETATM   26  O   UNK N   1      52.420  51.834  57.073  0.00  0.00    -0.388 OA
HETATM   27  H   UNK N   1      52.842  52.032  56.195  0.00  0.00     0.210 HD
ENDBRANCH  18  26
ENDBRANCH  12  13
ENDBRANCH   9  12
BRANCH  11  28
HETATM   28  O   UNK N   1      49.048  47.821  59.348  0.00  0.00    -0.360 OA
HETATM   29  H   UNK N   1      49.417  47.506  58.518  0.00  0.00     0.217 HD
ENDBRANCH  11  28
BRANCH   6  30
HETATM   30  C   UNK N   1      44.598  51.637  62.460  0.00  0.00     0.001 A 
HETATM   31  C   UNK N   1      44.736  53.014  62.710  0.00  0.00     0.054 A 
HETATM   32  C   UNK N   1      43.726  53.725  63.375  0.00  0.00     0.102 A 
HETATM   33  C   UNK N   1      42.552  53.071  63.765  0.00  0.00     0.099 A 
HETATM   34  C   UNK N   1      42.394  51.705  63.499  0.00  0.00     0.040 A 
HETATM   35  C   UNK N   1      43.411  50.988  62.863  0.00  0.00     0.017 A 
BRANCH  32  36
HETATM   36  O   UNK N   1      43.891  55.035  63.655  0.00  0.00    -0.353 OA
HETATM   37  C   UNK N   1      43.647  56.015  62.721  0.00  0.00     0.210 C 
ENDBRANCH  32  36
BRANCH  33  38
HETATM   38  O   UNK N   1      41.577  53.762  64.391  0.00  0.00    -0.358 OA
HETATM   39  H   UNK N   1      41.003  54.381  63.915  0.00  0.00     0.218 HD
ENDBRANCH  33  38
ENDBRANCH   6  30
TORSDOF 11
ENDMDL
MODEL 8
REMARK VINA RESULT:      -5.1     18.142     21.955
REMARK  11 active torsions:
REMARK  status: ('A' for Active; 'I' for Inactive)
REMARK    1  A    between atoms: C_6  and  C_8 
REMARK    2  A    between atoms: C_10  and  O_11 
REMARK    3  A    between atoms: C_13  and  O_14 
REMARK    4  A    between atoms: C_19  and  O_20 
REMARK    5  A    between atoms: O_20  and  C_21 
REMARK    6  A    between atoms: C_23  and  C_33 
REMARK    7  A    between atoms: C_24  and  O_25 
REMARK    8  A    between atoms: C_27  and  O_28 
REMARK    9  A    between atoms: C_30  and  O_31 
REMARK   10  A    between atoms: C_33  and  O_34 
REMARK   11  A    between atoms: C_37  and  O_38 
ROOT
HETATM    1  O   UNK N   1      46.402  57.435  57.755  0.00  0.00    -0.287 OA
HETATM    2  C   UNK N   1      47.061  56.453  58.032  0.00  0.00     0.190 A 
HETATM    3  C   UNK N   1      46.871  55.735  59.241  0.00  0.00     0.081 A 
HETATM    4  C   UNK N   1      47.701  54.603  59.453  0.00  0.00     0.095 A 
HETATM    5  O   UNK N   1      48.621  54.252  58.558  0.00  0.00    -0.309 OA
HETATM    6  C   UNK N   1      48.800  54.891  57.405  0.00  0.00     0.090 A 
HETATM    7  C   UNK N   1      48.015  56.014  57.113  0.00  0.00     0.094 A 
HETATM    8  C   UNK N   1      47.546  53.809  60.589  0.00  0.00     0.075 A 
HETATM    9  C   UNK N   1      46.560  54.094  61.529  0.00  0.00     0.077 A 
HETATM   10  C   UNK N   1      45.751  55.228  61.358  0.00  0.00     0.074 A 
HETATM   11  C   UNK N   1      45.893  56.061  60.240  0.00  0.00     0.085 A 
ENDROOT
BRANCH   9  12
HETATM   12  O   UNK N   1      46.393  53.231  62.565  0.00  0.00    -0.318 OA
BRANCH  12  13
HETATM   13  C   UNK N   1      46.288  51.856  62.442  0.00  0.00     0.298 C 
HETATM   14  O   UNK N   1      47.411  51.339  61.746  0.00  0.00    -0.348 OA
HETATM   15  C   UNK N   1      47.357  49.917  61.720  0.00  0.00     0.179 C 
HETATM   16  C   UNK N   1      46.131  49.437  60.900  0.00  0.00     0.180 C 
HETATM   17  C   UNK N   1      44.846  50.017  61.519  0.00  0.00     0.183 C 
HETATM   18  C   UNK N   1      44.995  51.538  61.667  0.00  0.00     0.205 C 
BRANCH  15  19
HETATM   19  C   UNK N   1      48.660  49.390  61.108  0.00  0.00     0.198 C 
BRANCH  19  20
HETATM   20  O   UNK N   1      48.521  49.299  59.717  0.00  0.00    -0.398 OA
HETATM   21  H   UNK N   1      48.482  48.328  59.509  0.00  0.00     0.209 HD
ENDBRANCH  19  20
ENDBRANCH  15  19
BRANCH  16  22
HETATM   22  O   UNK N   1      46.077  48.033  60.911  0.00  0.00    -0.390 OA
HETATM   23  H   UNK N   1      45.152  47.774  60.662  0.00  0.00     0.210 HD
ENDBRANCH  16  22
BRANCH  17  24
HETATM   24  O   UNK N   1      43.732  49.739  60.711  0.00  0.00    -0.390 OA
HETATM   25  H   UNK N   1      42.984  50.303  61.038  0.00  0.00     0.210 HD
ENDBRANCH  17  24
BRANCH  18  26
HETATM   26  O   UNK N   1      43.871  52.089  62.309  0.00  0.00    -0.388 OA
HETATM   27  H   UNK N   1      44.192  52.787  62.940  0.00  0.00     0.210 HD
ENDBRANCH  18  26
ENDBRANCH  12  13
ENDBRANCH   9  12
BRANCH  11  28
HETATM   28  O   UNK N   1      45.064  57.128  60.168  0.00  0.00    -0.360 OA
HETATM   29  H   UNK N   1      44.103  57.108  60.143  0.00  0.00     0.217 HD
ENDBRANCH  11  28
BRANCH   6  30
HETATM   30  C   UNK N   1      49.833  54.380  56.460  0.00  0.00     0.001 A 
HETATM   31  C   UNK N   1      50.263  55.197  55.398  0.00  0.00     0.054 A 
HETATM   32  C   UNK N   1      51.218  54.734  54.482  0.00  0.00     0.102 A 
HETATM   33  C   UNK N   1      51.779  53.461  54.638  0.00  0.00     0.099 A 
HETATM   34  C   UNK N   1      51.374  52.649  55.705  0.00  0.00     0.040 A 
HETATM   35  C   UNK N   1      50.401  53.096  56.603  0.00  0.00     0.017 A 
BRANCH  32  36
HETATM   36  O   UNK N   1      51.588  55.508  53.439  0.00  0.00    -0.353 OA
HETATM   37  C   UNK N   1      52.131  56.759  53.616  0.00  0.00     0.210 C 
ENDBRANCH  32  36
BRANCH  33  38
HETATM   38  O   UNK N   1      52.709  53.027  53.762  0.00  0.00    -0.358 OA
HETATM   39  H   UNK N   1      53.146  52.169  53.866  0.00  0.00     0.218 HD
ENDBRANCH  33  38
ENDBRANCH   6  30
TORSDOF 11
ENDMDL
MODEL 9
REMARK VINA RESULT:      -5.1      1.688      2.138
REMARK  11 active torsions:
REMARK  status: ('A' for Active; 'I' for Inactive)
REMARK    1  A    between atoms: C_6  and  C_8 
REMARK    2  A    between atoms: C_10  and  O_11 
REMARK    3  A    between atoms: C_13  and  O_14 
REMARK    4  A    between atoms: C_19  and  O_20 
REMARK    5  A    between atoms: O_20  and  C_21 
REMARK    6  A    between atoms: C_23  and  C_33 
REMARK    7  A    between atoms: C_24  and  O_25 
REMARK    8  A    between atoms: C_27  and  O_28 
REMARK    9  A    between atoms: C_30  and  O_31 
REMARK   10  A    between atoms: C_33  and  O_34 
REMARK   11  A    between atoms: C_37  and  O_38 
ROOT
HETATM    1  O   UNK N   1      27.611  43.627  60.675  0.00  0.00    -0.287 OA
HETATM    2  C   UNK N   1      28.236  44.157  59.779  0.00  0.00     0.190 A 
HETATM    3  C   UNK N   1      28.880  43.404  58.763  0.00  0.00     0.081 A 
HETATM    4  C   UNK N   1      29.581  44.136  57.768  0.00  0.00     0.095 A 
HETATM    5  O   UNK N   1      29.635  45.464  57.806  0.00  0.00    -0.309 OA
HETATM    6  C   UNK N   1      29.017  46.195  58.730  0.00  0.00     0.090 A 
HETATM    7  C   UNK N   1      28.295  45.551  59.745  0.00  0.00     0.094 A 
HETATM    8  C   UNK N   1      30.198  43.479  56.704  0.00  0.00     0.075 A 
HETATM    9  C   UNK N   1      30.123  42.094  56.580  0.00  0.00     0.077 A 
HETATM   10  C   UNK N   1      29.466  41.348  57.571  0.00  0.00     0.074 A 
HETATM   11  C   UNK N   1      28.854  41.972  58.665  0.00  0.00     0.085 A 
ENDROOT
BRANCH   9  12
HETATM   12  O   UNK N   1      30.660  41.519  55.473  0.00  0.00    -0.318 OA
BRANCH  12  13
HETATM   13  C   UNK N   1      29.948  41.157  54.343  0.00  0.00     0.298 C 
HETATM   14  O   UNK N   1      29.156  42.245  53.893  0.00  0.00    -0.348 OA
HETATM   15  C   UNK N   1      28.513  41.907  52.669  0.00  0.00     0.179 C 
HETATM   16  C   UNK N   1      27.503  40.751  52.889  0.00  0.00     0.180 C 
HETATM   17  C   UNK N   1      28.245  39.531  53.466  0.00  0.00     0.183 C 
HETATM   18  C   UNK N   1      29.046  39.961  54.703  0.00  0.00     0.205 C 
BRANCH  15  19
HETATM   19  C   UNK N   1      27.801  43.154  52.132  0.00  0.00     0.198 C 
BRANCH  19  20
HETATM   20  O   UNK N   1      27.629  43.035  50.747  0.00  0.00    -0.398 OA
HETATM   21  H   UNK N   1      28.497  42.709  50.390  0.00  0.00     0.209 HD
ENDBRANCH  19  20
ENDBRANCH  15  19
BRANCH  16  22
HETATM   22  O   UNK N   1      26.901  40.411  51.666  0.00  0.00    -0.390 OA
HETATM   23  H   UNK N   1      26.469  41.232  51.314  0.00  0.00     0.210 HD
ENDBRANCH  16  22
BRANCH  17  24
HETATM   24  O   UNK N   1      27.339  38.521  53.830  0.00  0.00    -0.390 OA
HETATM   25  H   UNK N   1      27.555  37.722  53.283  0.00  0.00     0.210 HD
ENDBRANCH  17  24
BRANCH  18  26
HETATM   26  O   UNK N   1      29.804  38.887  55.204  0.00  0.00    -0.388 OA
HETATM   27  H   UNK N   1      29.676  38.859  56.189  0.00  0.00     0.210 HD
ENDBRANCH  18  26
ENDBRANCH  12  13
ENDBRANCH   9  12
BRANCH  11  28
HETATM   28  O   UNK N   1      28.246  41.164  59.564  0.00  0.00    -0.360 OA
HETATM   29  H   UNK N   1      28.228  40.203  59.553  0.00  0.00     0.217 HD
ENDBRANCH  11  28
BRANCH   6  30
HETATM   30  C   UNK N   1      29.111  47.679  58.647  0.00  0.00     0.001 A 
HETATM   31  C   UNK N   1      29.086  48.304  57.386  0.00  0.00     0.054 A 
HETATM   32  C   UNK N   1      29.194  49.698  57.277  0.00  0.00     0.102 A 
HETATM   33  C   UNK N   1      29.293  50.484  58.431  0.00  0.00     0.099 A 
HETATM   34  C   UNK N   1      29.296  49.874  59.691  0.00  0.00     0.040 A 
HETATM   35  C   UNK N   1      29.218  48.483  59.802  0.00  0.00     0.017 A 
BRANCH  32  36
HETATM   36  O   UNK N   1      29.218  50.283  56.061  0.00  0.00    -0.353 OA
HETATM   37  C   UNK N   1      30.389  50.458  55.360  0.00  0.00     0.210 C 
ENDBRANCH  32  36
BRANCH  33  38
HETATM   38  O   UNK N   1      29.381  51.826  58.321  0.00  0.00    -0.358 OA
HETATM   39  H   UNK N   1      29.655  52.383  59.064  0.00  0.00     0.218 HD
ENDBRANCH  33  38
ENDBRANCH   6  30
TORSDOF 11
ENDMDL
