MODEL 1
REMARK VINA RESULT:      -6.3      0.000      0.000
REMARK  11 active torsions:
REMARK  status: ('A' for Active; 'I' for Inactive)
REMARK    1  A    between atoms: C_6  and  C_8 
REMARK    2  A    between atoms: C_10  and  O_11 
REMARK    3  A    between atoms: C_13  and  O_14 
REMARK    4  A    between atoms: C_19  and  O_20 
REMARK    5  A    between atoms: O_20  and  C_21 
REMARK    6  A    between atoms: C_23  and  C_33 
REMARK    7  A    between atoms: C_24  and  O_25 
REMARK    8  A    between atoms: C_27  and  O_28 
REMARK    9  A    between atoms: C_30  and  O_31 
REMARK   10  A    between atoms: C_33  and  O_34 
REMARK   11  A    between atoms: C_37  and  O_38 
ROOT
HETATM    1  O   UNK N   1      32.252  54.378  44.913  0.00  0.00    -0.287 OA
HETATM    2  C   UNK N   1      32.234  53.504  44.063  0.00  0.00     0.190 A 
HETATM    3  C   UNK N   1      31.318  53.546  42.989  0.00  0.00     0.081 A 
HETATM    4  C   UNK N   1      31.369  52.500  42.045  0.00  0.00     0.095 A 
HETATM    5  O   UNK N   1      32.261  51.526  42.159  0.00  0.00    -0.309 OA
HETATM    6  C   UNK N   1      33.121  51.438  43.167  0.00  0.00     0.090 A 
HETATM    7  C   UNK N   1      33.127  52.433  44.160  0.00  0.00     0.094 A 
HETATM    8  C   UNK N   1      30.471  52.459  40.985  0.00  0.00     0.075 A 
HETATM    9  C   UNK N   1      29.489  53.456  40.833  0.00  0.00     0.077 A 
HETATM   10  C   UNK N   1      29.448  54.514  41.750  0.00  0.00     0.074 A 
HETATM   11  C   UNK N   1      30.356  54.574  42.826  0.00  0.00     0.085 A 
ENDROOT
BRANCH   9  12
HETATM   12  O   UNK N   1      28.576  53.417  39.820  0.00  0.00    -0.318 OA
BRANCH  12  13
HETATM   13  C   UNK N   1      28.405  52.340  38.956  0.00  0.00     0.298 C 
HETATM   14  O   UNK N   1      27.893  51.200  39.636  0.00  0.00    -0.348 OA
HETATM   15  C   UNK N   1      26.582  51.419  40.140  0.00  0.00     0.179 C 
HETATM   16  C   UNK N   1      25.599  51.656  38.970  0.00  0.00     0.180 C 
HETATM   17  C   UNK N   1      26.064  52.902  38.184  0.00  0.00     0.183 C 
HETATM   18  C   UNK N   1      27.520  52.694  37.740  0.00  0.00     0.205 C 
BRANCH  15  19
HETATM   19  C   UNK N   1      26.177  50.193  40.973  0.00  0.00     0.198 C 
BRANCH  19  20
HETATM   20  O   UNK N   1      25.432  50.587  42.095  0.00  0.00    -0.398 OA
HETATM   21  H   UNK N   1      24.527  50.188  41.999  0.00  0.00     0.209 HD
ENDBRANCH  19  20
ENDBRANCH  15  19
BRANCH  16  22
HETATM   22  O   UNK N   1      24.294  51.842  39.456  0.00  0.00    -0.390 OA
HETATM   23  H   UNK N   1      23.690  51.336  38.851  0.00  0.00     0.210 HD
ENDBRANCH  16  22
BRANCH  17  24
HETATM   24  O   UNK N   1      25.978  54.053  38.987  0.00  0.00    -0.390 OA
HETATM   25  H   UNK N   1      26.540  54.748  38.555  0.00  0.00     0.210 HD
ENDBRANCH  17  24
BRANCH  18  26
HETATM   26  O   UNK N   1      27.562  51.638  36.813  0.00  0.00    -0.388 OA
HETATM   27  H   UNK N   1      28.116  50.920  37.219  0.00  0.00     0.210 HD
ENDBRANCH  18  26
ENDBRANCH  12  13
ENDBRANCH   9  12
BRANCH  11  28
HETATM   28  O   UNK N   1      30.295  55.605  43.696  0.00  0.00    -0.360 OA
HETATM   29  H   UNK N   1      29.746  56.385  43.529  0.00  0.00     0.217 HD
ENDBRANCH  11  28
BRANCH   6  30
HETATM   30  C   UNK N   1      34.034  50.268  43.199  0.00  0.00     0.001 A 
HETATM   31  C   UNK N   1      35.423  50.487  43.178  0.00  0.00     0.054 A 
HETATM   32  C   UNK N   1      36.315  49.411  43.201  0.00  0.00     0.102 A 
HETATM   33  C   UNK N   1      35.830  48.098  43.199  0.00  0.00     0.099 A 
HETATM   34  C   UNK N   1      34.446  47.870  43.209  0.00  0.00     0.040 A 
HETATM   35  C   UNK N   1      33.551  48.946  43.225  0.00  0.00     0.017 A 
BRANCH  32  36
HETATM   36  O   UNK N   1      37.645  49.648  43.234  0.00  0.00    -0.353 OA
HETATM   37  C   UNK N   1      38.325  50.001  42.087  0.00  0.00     0.210 C 
ENDBRANCH  32  36
BRANCH  33  38
HETATM   38  O   UNK N   1      36.696  47.064  43.188  0.00  0.00    -0.358 OA
HETATM   39  H   UNK N   1      37.345  46.936  43.895  0.00  0.00     0.218 HD
ENDBRANCH  33  38
ENDBRANCH   6  30
TORSDOF 11
ENDMDL
MODEL 2
REMARK VINA RESULT:      -5.9     14.973     17.362
REMARK  11 active torsions:
REMARK  status: ('A' for Active; 'I' for Inactive)
REMARK    1  A    between atoms: C_6  and  C_8 
REMARK    2  A    between atoms: C_10  and  O_11 
REMARK    3  A    between atoms: C_13  and  O_14 
REMARK    4  A    between atoms: C_19  and  O_20 
REMARK    5  A    between atoms: O_20  and  C_21 
REMARK    6  A    between atoms: C_23  and  C_33 
REMARK    7  A    between atoms: C_24  and  O_25 
REMARK    8  A    between atoms: C_27  and  O_28 
REMARK    9  A    between atoms: C_30  and  O_31 
REMARK   10  A    between atoms: C_33  and  O_34 
REMARK   11  A    between atoms: C_37  and  O_38 
ROOT
HETATM    1  O   UNK N   1      30.691  41.812  59.720  0.00  0.00    -0.287 OA
HETATM    2  C   UNK N   1      30.154  42.640  59.004  0.00  0.00     0.190 A 
HETATM    3  C   UNK N   1      29.490  42.261  57.816  0.00  0.00     0.081 A 
HETATM    4  C   UNK N   1      28.889  43.279  57.050  0.00  0.00     0.095 A 
HETATM    5  O   UNK N   1      28.933  44.544  57.447  0.00  0.00    -0.309 OA
HETATM    6  C   UNK N   1      29.569  44.943  58.543  0.00  0.00     0.090 A 
HETATM    7  C   UNK N   1      30.208  43.992  59.357  0.00  0.00     0.094 A 
HETATM    8  C   UNK N   1      28.253  42.980  55.851  0.00  0.00     0.075 A 
HETATM    9  C   UNK N   1      28.199  41.658  55.373  0.00  0.00     0.077 A 
HETATM   10  C   UNK N   1      28.770  40.635  56.141  0.00  0.00     0.074 A 
HETATM   11  C   UNK N   1      29.412  40.920  57.363  0.00  0.00     0.085 A 
ENDROOT
BRANCH   9  12
HETATM   12  O   UNK N   1      27.610  41.347  54.182  0.00  0.00    -0.318 OA
BRANCH  12  13
HETATM   13  C   UNK N   1      28.297  41.174  52.985  0.00  0.00     0.298 C 
HETATM   14  O   UNK N   1      27.498  40.508  52.014  0.00  0.00    -0.348 OA
HETATM   15  C   UNK N   1      26.369  41.280  51.628  0.00  0.00     0.179 C 
HETATM   16  C   UNK N   1      26.832  42.582  50.933  0.00  0.00     0.180 C 
HETATM   17  C   UNK N   1      27.692  43.390  51.931  0.00  0.00     0.183 C 
HETATM   18  C   UNK N   1      28.846  42.504  52.423  0.00  0.00     0.205 C 
BRANCH  15  19
HETATM   19  C   UNK N   1      25.500  40.425  50.692  0.00  0.00     0.198 C 
BRANCH  19  20
HETATM   20  O   UNK N   1      25.908  40.586  49.359  0.00  0.00    -0.398 OA
HETATM   21  H   UNK N   1      26.821  40.977  49.380  0.00  0.00     0.209 HD
ENDBRANCH  19  20
ENDBRANCH  15  19
BRANCH  16  22
HETATM   22  O   UNK N   1      25.722  43.338  50.519  0.00  0.00    -0.390 OA
HETATM   23  H   UNK N   1      25.567  43.115  49.564  0.00  0.00     0.210 HD
ENDBRANCH  16  22
BRANCH  17  24
HETATM   24  O   UNK N   1      26.917  43.803  53.029  0.00  0.00    -0.390 OA
HETATM   25  H   UNK N   1      26.107  43.228  53.042  0.00  0.00     0.210 HD
ENDBRANCH  17  24
BRANCH  18  26
HETATM   26  O   UNK N   1      29.698  42.231  51.339  0.00  0.00    -0.388 OA
HETATM   27  H   UNK N   1      29.152  42.314  50.514  0.00  0.00     0.210 HD
ENDBRANCH  18  26
ENDBRANCH  12  13
ENDBRANCH   9  12
BRANCH  11  28
HETATM   28  O   UNK N   1      29.955  39.916  58.084  0.00  0.00    -0.360 OA
HETATM   29  H   UNK N   1      30.567  39.276  57.692  0.00  0.00     0.217 HD
ENDBRANCH  11  28
BRANCH   6  30
HETATM   30  C   UNK N   1      29.581  46.396  58.845  0.00  0.00     0.001 A 
HETATM   31  C   UNK N   1      29.909  47.302  57.821  0.00  0.00     0.054 A 
HETATM   32  C   UNK N   1      29.937  48.678  58.068  0.00  0.00     0.102 A 
HETATM   33  C   UNK N   1      29.681  49.164  59.356  0.00  0.00     0.099 A 
HETATM   34  C   UNK N   1      29.363  48.267  60.386  0.00  0.00     0.040 A 
HETATM   35  C   UNK N   1      29.297  46.892  60.132  0.00  0.00     0.017 A 
BRANCH  32  36
HETATM   36  O   UNK N   1      30.203  49.532  57.056  0.00  0.00    -0.353 OA
HETATM   37  C   UNK N   1      29.192  49.983  56.233  0.00  0.00     0.210 C 
ENDBRANCH  32  36
BRANCH  33  38
HETATM   38  O   UNK N   1      29.741  50.490  59.595  0.00  0.00    -0.358 OA
HETATM   39  H   UNK N   1      30.556  50.917  59.898  0.00  0.00     0.218 HD
ENDBRANCH  33  38
ENDBRANCH   6  30
TORSDOF 11
ENDMDL
MODEL 3
REMARK VINA RESULT:      -5.8     23.590     24.725
REMARK  11 active torsions:
REMARK  status: ('A' for Active; 'I' for Inactive)
REMARK    1  A    between atoms: C_6  and  C_8 
REMARK    2  A    between atoms: C_10  and  O_11 
REMARK    3  A    between atoms: C_13  and  O_14 
REMARK    4  A    between atoms: C_19  and  O_20 
REMARK    5  A    between atoms: O_20  and  C_21 
REMARK    6  A    between atoms: C_23  and  C_33 
REMARK    7  A    between atoms: C_24  and  O_25 
REMARK    8  A    between atoms: C_27  and  O_28 
REMARK    9  A    between atoms: C_30  and  O_31 
REMARK   10  A    between atoms: C_33  and  O_34 
REMARK   11  A    between atoms: C_37  and  O_38 
ROOT
HETATM    1  O   UNK N   1      44.897  56.526  61.583  0.00  0.00    -0.287 OA
HETATM    2  C   UNK N   1      45.498  55.688  60.934  0.00  0.00     0.190 A 
HETATM    3  C   UNK N   1      46.277  56.048  59.812  0.00  0.00     0.081 A 
HETATM    4  C   UNK N   1      46.947  55.017  59.122  0.00  0.00     0.095 A 
HETATM    5  O   UNK N   1      46.858  53.759  59.530  0.00  0.00    -0.309 OA
HETATM    6  C   UNK N   1      46.116  53.376  60.563  0.00  0.00     0.090 A 
HETATM    7  C   UNK N   1      45.404  54.340  61.298  0.00  0.00     0.094 A 
HETATM    8  C   UNK N   1      47.699  55.298  57.988  0.00  0.00     0.075 A 
HETATM    9  C   UNK N   1      47.805  56.613  57.500  0.00  0.00     0.077 A 
HETATM   10  C   UNK N   1      47.165  57.648  58.194  0.00  0.00     0.074 A 
HETATM   11  C   UNK N   1      46.406  57.382  59.351  0.00  0.00     0.085 A 
ENDROOT
BRANCH   9  12
HETATM   12  O   UNK N   1      48.510  56.906  56.369  0.00  0.00    -0.318 OA
BRANCH  12  13
HETATM   13  C   UNK N   1      49.861  57.236  56.347  0.00  0.00     0.298 C 
HETATM   14  O   UNK N   1      50.676  56.092  56.121  0.00  0.00    -0.348 OA
HETATM   15  C   UNK N   1      50.462  55.528  54.833  0.00  0.00     0.179 C 
HETATM   16  C   UNK N   1      50.883  56.535  53.738  0.00  0.00     0.180 C 
HETATM   17  C   UNK N   1      50.024  57.811  53.891  0.00  0.00     0.183 C 
HETATM   18  C   UNK N   1      50.181  58.347  55.323  0.00  0.00     0.205 C 
BRANCH  15  19
HETATM   19  C   UNK N   1      51.274  54.226  54.738  0.00  0.00     0.198 C 
BRANCH  19  20
HETATM   20  O   UNK N   1      50.944  53.527  53.567  0.00  0.00    -0.398 OA
HETATM   21  H   UNK N   1      50.519  52.674  53.848  0.00  0.00     0.209 HD
ENDBRANCH  19  20
ENDBRANCH  15  19
BRANCH  16  22
HETATM   22  O   UNK N   1      50.706  55.975  52.462  0.00  0.00    -0.390 OA
HETATM   23  H   UNK N   1      49.733  56.015  52.267  0.00  0.00     0.210 HD
ENDBRANCH  16  22
BRANCH  17  24
HETATM   24  O   UNK N   1      48.670  57.527  53.642  0.00  0.00    -0.390 OA
HETATM   25  H   UNK N   1      48.472  56.660  54.085  0.00  0.00     0.210 HD
ENDBRANCH  17  24
BRANCH  18  26
HETATM   26  O   UNK N   1      51.509  58.773  55.501  0.00  0.00    -0.388 OA
HETATM   27  H   UNK N   1      51.591  59.074  56.444  0.00  0.00     0.210 HD
ENDBRANCH  18  26
ENDBRANCH  12  13
ENDBRANCH   9  12
BRANCH  11  28
HETATM   28  O   UNK N   1      45.799  58.398  60.002  0.00  0.00    -0.360 OA
HETATM   29  H   UNK N   1      46.248  59.240  60.169  0.00  0.00     0.217 HD
ENDBRANCH  11  28
BRANCH   6  30
HETATM   30  C   UNK N   1      46.067  51.928  60.883  0.00  0.00     0.001 A 
HETATM   31  C   UNK N   1      47.256  51.180  60.836  0.00  0.00     0.054 A 
HETATM   32  C   UNK N   1      47.251  49.812  61.126  0.00  0.00     0.102 A 
HETATM   33  C   UNK N   1      46.046  49.163  61.421  0.00  0.00     0.099 A 
HETATM   34  C   UNK N   1      44.853  49.899  61.460  0.00  0.00     0.040 A 
HETATM   35  C   UNK N   1      44.862  51.276  61.208  0.00  0.00     0.017 A 
BRANCH  32  36
HETATM   36  O   UNK N   1      48.415  49.126  61.126  0.00  0.00    -0.353 OA
HETATM   37  C   UNK N   1      49.410  49.429  60.221  0.00  0.00     0.210 C 
ENDBRANCH  32  36
BRANCH  33  38
HETATM   38  O   UNK N   1      46.043  47.837  61.667  0.00  0.00    -0.358 OA
HETATM   39  H   UNK N   1      46.673  47.431  62.280  0.00  0.00     0.218 HD
ENDBRANCH  33  38
ENDBRANCH   6  30
TORSDOF 11
ENDMDL
MODEL 4
REMARK VINA RESULT:      -5.7     15.424     17.989
REMARK  11 active torsions:
REMARK  status: ('A' for Active; 'I' for Inactive)
REMARK    1  A    between atoms: C_6  and  C_8 
REMARK    2  A    between atoms: C_10  and  O_11 
REMARK    3  A    between atoms: C_13  and  O_14 
REMARK    4  A    between atoms: C_19  and  O_20 
REMARK    5  A    between atoms: O_20  and  C_21 
REMARK    6  A    between atoms: C_23  and  C_33 
REMARK    7  A    between atoms: C_24  and  O_25 
REMARK    8  A    between atoms: C_27  and  O_28 
REMARK    9  A    between atoms: C_30  and  O_31 
REMARK   10  A    between atoms: C_33  and  O_34 
REMARK   11  A    between atoms: C_37  and  O_38 
ROOT
HETATM    1  O   UNK N   1      31.670  43.406  60.557  0.00  0.00    -0.287 OA
HETATM    2  C   UNK N   1      30.934  43.960  59.759  0.00  0.00     0.190 A 
HETATM    3  C   UNK N   1      30.235  43.227  58.775  0.00  0.00     0.081 A 
HETATM    4  C   UNK N   1      29.398  43.944  57.896  0.00  0.00     0.095 A 
HETATM    5  O   UNK N   1      29.263  45.259  58.009  0.00  0.00    -0.309 OA
HETATM    6  C   UNK N   1      29.922  45.986  58.904  0.00  0.00     0.090 A 
HETATM    7  C   UNK N   1      30.789  45.351  59.809  0.00  0.00     0.094 A 
HETATM    8  C   UNK N   1      28.712  43.289  56.881  0.00  0.00     0.075 A 
HETATM    9  C   UNK N   1      28.841  41.900  56.703  0.00  0.00     0.077 A 
HETATM   10  C   UNK N   1      29.649  41.174  57.588  0.00  0.00     0.074 A 
HETATM   11  C   UNK N   1      30.345  41.822  58.628  0.00  0.00     0.085 A 
ENDROOT
BRANCH   9  12
HETATM   12  O   UNK N   1      28.203  41.242  55.692  0.00  0.00    -0.318 OA
BRANCH  12  13
HETATM   13  C   UNK N   1      26.980  41.625  55.151  0.00  0.00     0.298 C 
HETATM   14  O   UNK N   1      27.137  42.648  54.174  0.00  0.00    -0.348 OA
HETATM   15  C   UNK N   1      27.863  42.197  53.038  0.00  0.00     0.179 C 
HETATM   16  C   UNK N   1      27.075  41.079  52.317  0.00  0.00     0.180 C 
HETATM   17  C   UNK N   1      26.879  39.905  53.302  0.00  0.00     0.183 C 
HETATM   18  C   UNK N   1      26.191  40.431  54.571  0.00  0.00     0.205 C 
BRANCH  15  19
HETATM   19  C   UNK N   1      28.102  43.400  52.112  0.00  0.00     0.198 C 
BRANCH  19  20
HETATM   20  O   UNK N   1      29.297  43.238  51.396  0.00  0.00    -0.398 OA
HETATM   21  H   UNK N   1      29.210  42.400  50.870  0.00  0.00     0.209 HD
ENDBRANCH  19  20
ENDBRANCH  15  19
BRANCH  16  22
HETATM   22  O   UNK N   1      27.769  40.648  51.173  0.00  0.00    -0.390 OA
HETATM   23  H   UNK N   1      27.352  41.107  50.398  0.00  0.00     0.210 HD
ENDBRANCH  16  22
BRANCH  17  24
HETATM   24  O   UNK N   1      28.118  39.334  53.642  0.00  0.00    -0.390 OA
HETATM   25  H   UNK N   1      28.251  39.493  54.614  0.00  0.00     0.210 HD
ENDBRANCH  17  24
BRANCH  18  26
HETATM   26  O   UNK N   1      24.892  40.852  54.238  0.00  0.00    -0.388 OA
HETATM   27  H   UNK N   1      24.846  40.892  53.246  0.00  0.00     0.210 HD
ENDBRANCH  18  26
ENDBRANCH  12  13
ENDBRANCH   9  12
BRANCH  11  28
HETATM   28  O   UNK N   1      31.118  41.099  59.467  0.00  0.00    -0.360 OA
HETATM   29  H   UNK N   1      31.099  41.235  60.426  0.00  0.00     0.217 HD
ENDBRANCH  11  28
BRANCH   6  30
HETATM   30  C   UNK N   1      29.713  47.456  58.890  0.00  0.00     0.001 A 
HETATM   31  C   UNK N   1      29.972  48.169  57.706  0.00  0.00     0.054 A 
HETATM   32  C   UNK N   1      29.793  49.555  57.654  0.00  0.00     0.102 A 
HETATM   33  C   UNK N   1      29.396  50.253  58.801  0.00  0.00     0.099 A 
HETATM   34  C   UNK N   1      29.145  49.551  59.989  0.00  0.00     0.040 A 
HETATM   35  C   UNK N   1      29.286  48.159  60.032  0.00  0.00     0.017 A 
BRANCH  32  36
HETATM   36  O   UNK N   1      29.998  50.211  56.491  0.00  0.00    -0.353 OA
HETATM   37  C   UNK N   1      31.134  49.978  55.744  0.00  0.00     0.210 C 
ENDBRANCH  32  36
BRANCH  33  38
HETATM   38  O   UNK N   1      29.256  51.594  58.754  0.00  0.00    -0.358 OA
HETATM   39  H   UNK N   1      28.384  52.015  58.734  0.00  0.00     0.218 HD
ENDBRANCH  33  38
ENDBRANCH   6  30
TORSDOF 11
ENDMDL
MODEL 5
REMARK VINA RESULT:      -5.7      1.756      2.507
REMARK  11 active torsions:
REMARK  status: ('A' for Active; 'I' for Inactive)
REMARK    1  A    between atoms: C_6  and  C_8 
REMARK    2  A    between atoms: C_10  and  O_11 
REMARK    3  A    between atoms: C_13  and  O_14 
REMARK    4  A    between atoms: C_19  and  O_20 
REMARK    5  A    between atoms: O_20  and  C_21 
REMARK    6  A    between atoms: C_23  and  C_33 
REMARK    7  A    between atoms: C_24  and  O_25 
REMARK    8  A    between atoms: C_27  and  O_28 
REMARK    9  A    between atoms: C_30  and  O_31 
REMARK   10  A    between atoms: C_33  and  O_34 
REMARK   11  A    between atoms: C_37  and  O_38 
ROOT
HETATM    1  O   UNK N   1      33.084  54.691  45.080  0.00  0.00    -0.287 OA
HETATM    2  C   UNK N   1      32.839  53.795  44.292  0.00  0.00     0.190 A 
HETATM    3  C   UNK N   1      31.759  53.890  43.386  0.00  0.00     0.081 A 
HETATM    4  C   UNK N   1      31.551  52.812  42.502  0.00  0.00     0.095 A 
HETATM    5  O   UNK N   1      32.358  51.759  42.513  0.00  0.00    -0.309 OA
HETATM    6  C   UNK N   1      33.367  51.622  43.365  0.00  0.00     0.090 A 
HETATM    7  C   UNK N   1      33.635  52.645  44.291  0.00  0.00     0.094 A 
HETATM    8  C   UNK N   1      30.484  52.824  41.612  0.00  0.00     0.075 A 
HETATM    9  C   UNK N   1      29.585  53.906  41.577  0.00  0.00     0.077 A 
HETATM   10  C   UNK N   1      29.799  54.993  42.434  0.00  0.00     0.074 A 
HETATM   11  C   UNK N   1      30.881  55.001  43.336  0.00  0.00     0.085 A 
ENDROOT
BRANCH   9  12
HETATM   12  O   UNK N   1      28.511  53.922  40.735  0.00  0.00    -0.318 OA
BRANCH  12  13
HETATM   13  C   UNK N   1      27.254  53.420  41.054  0.00  0.00     0.298 C 
HETATM   14  O   UNK N   1      26.513  54.333  41.855  0.00  0.00    -0.348 OA
HETATM   15  C   UNK N   1      26.211  55.535  41.159  0.00  0.00     0.179 C 
HETATM   16  C   UNK N   1      25.292  55.231  39.953  0.00  0.00     0.180 C 
HETATM   17  C   UNK N   1      26.031  54.258  39.007  0.00  0.00     0.183 C 
HETATM   18  C   UNK N   1      26.447  53.011  39.802  0.00  0.00     0.205 C 
BRANCH  15  19
HETATM   19  C   UNK N   1      25.541  56.505  42.143  0.00  0.00     0.198 C 
BRANCH  19  20
HETATM   20  O   UNK N   1      26.420  57.544  42.485  0.00  0.00    -0.398 OA
HETATM   21  H   UNK N   1      27.165  57.137  43.000  0.00  0.00     0.209 HD
ENDBRANCH  19  20
ENDBRANCH  15  19
BRANCH  16  22
HETATM   22  O   UNK N   1      24.962  56.417  39.276  0.00  0.00    -0.390 OA
HETATM   23  H   UNK N   1      24.819  56.171  38.325  0.00  0.00     0.210 HD
ENDBRANCH  16  22
BRANCH  17  24
HETATM   24  O   UNK N   1      27.175  54.871  38.464  0.00  0.00    -0.390 OA
HETATM   25  H   UNK N   1      27.439  54.335  37.671  0.00  0.00     0.210 HD
ENDBRANCH  17  24
BRANCH  18  26
HETATM   26  O   UNK N   1      25.287  52.325  40.202  0.00  0.00    -0.388 OA
HETATM   27  H   UNK N   1      25.058  51.693  39.470  0.00  0.00     0.210 HD
ENDBRANCH  18  26
ENDBRANCH  12  13
ENDBRANCH   9  12
BRANCH  11  28
HETATM   28  O   UNK N   1      31.065  56.062  44.151  0.00  0.00    -0.360 OA
HETATM   29  H   UNK N   1      31.082  56.970  43.814  0.00  0.00     0.217 HD
ENDBRANCH  11  28
BRANCH   6  30
HETATM   30  C   UNK N   1      34.161  50.370  43.301  0.00  0.00     0.001 A 
HETATM   31  C   UNK N   1      35.550  50.454  43.097  0.00  0.00     0.054 A 
HETATM   32  C   UNK N   1      36.332  49.297  43.026  0.00  0.00     0.102 A 
HETATM   33  C   UNK N   1      35.728  48.037  43.112  0.00  0.00     0.099 A 
HETATM   34  C   UNK N   1      34.342  47.943  43.305  0.00  0.00     0.040 A 
HETATM   35  C   UNK N   1      33.563  49.100  43.415  0.00  0.00     0.017 A 
BRANCH  32  36
HETATM   36  O   UNK N   1      37.671  49.405  42.882  0.00  0.00    -0.353 OA
HETATM   37  C   UNK N   1      38.477  49.652  43.974  0.00  0.00     0.210 C 
ENDBRANCH  32  36
BRANCH  33  38
HETATM   38  O   UNK N   1      36.484  46.924  43.010  0.00  0.00    -0.358 OA
HETATM   39  H   UNK N   1      36.093  46.058  42.820  0.00  0.00     0.218 HD
ENDBRANCH  33  38
ENDBRANCH   6  30
TORSDOF 11
ENDMDL
MODEL 6
REMARK VINA RESULT:      -5.7     16.533     18.797
REMARK  11 active torsions:
REMARK  status: ('A' for Active; 'I' for Inactive)
REMARK    1  A    between atoms: C_6  and  C_8 
REMARK    2  A    between atoms: C_10  and  O_11 
REMARK    3  A    between atoms: C_13  and  O_14 
REMARK    4  A    between atoms: C_19  and  O_20 
REMARK    5  A    between atoms: O_20  and  C_21 
REMARK    6  A    between atoms: C_23  and  C_33 
REMARK    7  A    between atoms: C_24  and  O_25 
REMARK    8  A    between atoms: C_27  and  O_28 
REMARK    9  A    between atoms: C_30  and  O_31 
REMARK   10  A    between atoms: C_33  and  O_34 
REMARK   11  A    between atoms: C_37  and  O_38 
ROOT
HETATM    1  O   UNK N   1      29.217  38.066  59.276  0.00  0.00    -0.287 OA
HETATM    2  C   UNK N   1      29.596  39.179  58.956  0.00  0.00     0.190 A 
HETATM    3  C   UNK N   1      29.139  39.797  57.771  0.00  0.00     0.081 A 
HETATM    4  C   UNK N   1      29.621  41.089  57.479  0.00  0.00     0.095 A 
HETATM    5  O   UNK N   1      30.459  41.703  58.303  0.00  0.00    -0.309 OA
HETATM    6  C   UNK N   1      30.932  41.146  59.412  0.00  0.00     0.090 A 
HETATM    7  C   UNK N   1      30.513  39.853  59.770  0.00  0.00     0.094 A 
HETATM    8  C   UNK N   1      29.241  41.738  56.310  0.00  0.00     0.075 A 
HETATM    9  C   UNK N   1      28.373  41.121  55.391  0.00  0.00     0.077 A 
HETATM   10  C   UNK N   1      27.867  39.848  55.686  0.00  0.00     0.074 A 
HETATM   11  C   UNK N   1      28.236  39.180  56.870  0.00  0.00     0.085 A 
ENDROOT
BRANCH   9  12
HETATM   12  O   UNK N   1      28.014  41.726  54.222  0.00  0.00    -0.318 OA
BRANCH  12  13
HETATM   13  C   UNK N   1      28.542  41.405  52.976  0.00  0.00     0.298 C 
HETATM   14  O   UNK N   1      27.628  40.638  52.202  0.00  0.00    -0.348 OA
HETATM   15  C   UNK N   1      26.455  41.371  51.875  0.00  0.00     0.179 C 
HETATM   16  C   UNK N   1      26.818  42.577  50.977  0.00  0.00     0.180 C 
HETATM   17  C   UNK N   1      27.796  43.488  51.752  0.00  0.00     0.183 C 
HETATM   18  C   UNK N   1      29.009  42.653  52.193  0.00  0.00     0.205 C 
BRANCH  15  19
HETATM   19  C   UNK N   1      25.476  40.421  51.167  0.00  0.00     0.198 C 
BRANCH  19  20
HETATM   20  O   UNK N   1      25.736  40.386  49.788  0.00  0.00    -0.398 OA
HETATM   21  H   UNK N   1      26.673  40.078  49.677  0.00  0.00     0.209 HD
ENDBRANCH  19  20
ENDBRANCH  15  19
BRANCH  16  22
HETATM   22  O   UNK N   1      25.661  43.290  50.621  0.00  0.00    -0.390 OA
HETATM   23  H   UNK N   1      25.154  43.446  51.461  0.00  0.00     0.210 HD
ENDBRANCH  16  22
BRANCH  17  24
HETATM   24  O   UNK N   1      27.167  44.036  52.884  0.00  0.00    -0.390 OA
HETATM   25  H   UNK N   1      27.294  45.020  52.835  0.00  0.00     0.210 HD
ENDBRANCH  17  24
BRANCH  18  26
HETATM   26  O   UNK N   1      29.715  42.245  51.049  0.00  0.00    -0.388 OA
HETATM   27  H   UNK N   1      29.108  41.654  50.530  0.00  0.00     0.210 HD
ENDBRANCH  18  26
ENDBRANCH  12  13
ENDBRANCH   9  12
BRANCH  11  28
HETATM   28  O   UNK N   1      27.734  37.953  57.130  0.00  0.00    -0.360 OA
HETATM   29  H   UNK N   1      28.219  37.144  56.912  0.00  0.00     0.217 HD
ENDBRANCH  11  28
BRANCH   6  30
HETATM   30  C   UNK N   1      31.903  41.926  60.219  0.00  0.00     0.001 A 
HETATM   31  C   UNK N   1      31.489  42.463  61.450  0.00  0.00     0.054 A 
HETATM   32  C   UNK N   1      32.373  43.208  62.237  0.00  0.00     0.102 A 
HETATM   33  C   UNK N   1      33.671  43.465  61.781  0.00  0.00     0.099 A 
HETATM   34  C   UNK N   1      34.090  42.942  60.549  0.00  0.00     0.040 A 
HETATM   35  C   UNK N   1      33.219  42.163  59.777  0.00  0.00     0.017 A 
BRANCH  32  36
HETATM   36  O   UNK N   1      31.968  43.669  63.441  0.00  0.00    -0.353 OA
HETATM   37  C   UNK N   1      31.133  44.763  63.529  0.00  0.00     0.210 C 
ENDBRANCH  32  36
BRANCH  33  38
HETATM   38  O   UNK N   1      34.509  44.212  62.529  0.00  0.00    -0.358 OA
HETATM   39  H   UNK N   1      35.112  43.811  63.172  0.00  0.00     0.218 HD
ENDBRANCH  33  38
ENDBRANCH   6  30
TORSDOF 11
ENDMDL
MODEL 7
REMARK VINA RESULT:      -5.6     15.359     17.694
REMARK  11 active torsions:
REMARK  status: ('A' for Active; 'I' for Inactive)
REMARK    1  A    between atoms: C_6  and  C_8 
REMARK    2  A    between atoms: C_10  and  O_11 
REMARK    3  A    between atoms: C_13  and  O_14 
REMARK    4  A    between atoms: C_19  and  O_20 
REMARK    5  A    between atoms: O_20  and  C_21 
REMARK    6  A    between atoms: C_23  and  C_33 
REMARK    7  A    between atoms: C_24  and  O_25 
REMARK    8  A    between atoms: C_27  and  O_28 
REMARK    9  A    between atoms: C_30  and  O_31 
REMARK   10  A    between atoms: C_33  and  O_34 
REMARK   11  A    between atoms: C_37  and  O_38 
ROOT
HETATM    1  O   UNK N   1      32.973  43.718  57.596  0.00  0.00    -0.287 OA
HETATM    2  C   UNK N   1      31.760  43.804  57.684  0.00  0.00     0.190 A 
HETATM    3  C   UNK N   1      30.911  43.172  56.749  0.00  0.00     0.081 A 
HETATM    4  C   UNK N   1      29.521  43.314  56.927  0.00  0.00     0.095 A 
HETATM    5  O   UNK N   1      29.035  44.003  57.951  0.00  0.00    -0.309 OA
HETATM    6  C   UNK N   1      29.799  44.633  58.835  0.00  0.00     0.090 A 
HETATM    7  C   UNK N   1      31.198  44.554  58.722  0.00  0.00     0.094 A 
HETATM    8  C   UNK N   1      28.630  42.750  56.022  0.00  0.00     0.075 A 
HETATM    9  C   UNK N   1      29.095  42.030  54.906  0.00  0.00     0.077 A 
HETATM   10  C   UNK N   1      30.474  41.860  54.734  0.00  0.00     0.074 A 
HETATM   11  C   UNK N   1      31.391  42.418  55.647  0.00  0.00     0.085 A 
ENDROOT
BRANCH   9  12
HETATM   12  O   UNK N   1      28.239  41.497  53.986  0.00  0.00    -0.318 OA
BRANCH  12  13
HETATM   13  C   UNK N   1      28.598  41.142  52.690  0.00  0.00     0.298 C 
HETATM   14  O   UNK N   1      27.572  40.392  52.050  0.00  0.00    -0.348 OA
HETATM   15  C   UNK N   1      26.389  41.156  51.857  0.00  0.00     0.179 C 
HETATM   16  C   UNK N   1      26.673  42.336  50.898  0.00  0.00     0.180 C 
HETATM   17  C   UNK N   1      27.766  43.228  51.530  0.00  0.00     0.183 C 
HETATM   18  C   UNK N   1      28.999  42.362  51.833  0.00  0.00     0.205 C 
BRANCH  15  19
HETATM   19  C   UNK N   1      25.303  40.227  51.294  0.00  0.00     0.198 C 
BRANCH  19  20
HETATM   20  O   UNK N   1      25.420  40.123  49.899  0.00  0.00    -0.398 OA
HETATM   21  H   UNK N   1      24.516  40.281  49.519  0.00  0.00     0.209 HD
ENDBRANCH  19  20
ENDBRANCH  15  19
BRANCH  16  22
HETATM   22  O   UNK N   1      25.502  43.080  50.676  0.00  0.00    -0.390 OA
HETATM   23  H   UNK N   1      24.822  42.443  50.333  0.00  0.00     0.210 HD
ENDBRANCH  16  22
BRANCH  17  24
HETATM   24  O   UNK N   1      27.299  43.813  52.720  0.00  0.00    -0.390 OA
HETATM   25  H   UNK N   1      26.450  44.277  52.498  0.00  0.00     0.210 HD
ENDBRANCH  17  24
BRANCH  18  26
HETATM   26  O   UNK N   1      29.546  41.915  50.617  0.00  0.00    -0.388 OA
HETATM   27  H   UNK N   1      29.711  42.721  50.061  0.00  0.00     0.210 HD
ENDBRANCH  18  26
ENDBRANCH  12  13
ENDBRANCH   9  12
BRANCH  11  28
HETATM   28  O   UNK N   1      32.716  42.240  55.459  0.00  0.00    -0.360 OA
HETATM   29  H   UNK N   1      33.176  42.594  54.684  0.00  0.00     0.217 HD
ENDBRANCH  11  28
BRANCH   6  30
HETATM   30  C   UNK N   1      29.124  45.409  59.905  0.00  0.00     0.001 A 
HETATM   31  C   UNK N   1      29.579  46.707  60.196  0.00  0.00     0.054 A 
HETATM   32  C   UNK N   1      28.973  47.468  61.200  0.00  0.00     0.102 A 
HETATM   33  C   UNK N   1      27.931  46.922  61.960  0.00  0.00     0.099 A 
HETATM   34  C   UNK N   1      27.477  45.625  61.683  0.00  0.00     0.040 A 
HETATM   35  C   UNK N   1      28.057  44.876  60.653  0.00  0.00     0.017 A 
BRANCH  32  36
HETATM   36  O   UNK N   1      29.394  48.732  61.425  0.00  0.00    -0.353 OA
HETATM   37  C   UNK N   1      29.223  49.710  60.468  0.00  0.00     0.210 C 
ENDBRANCH  32  36
BRANCH  33  38
HETATM   38  O   UNK N   1      27.372  47.650  62.948  0.00  0.00    -0.358 OA
HETATM   39  H   UNK N   1      26.444  47.536  63.202  0.00  0.00     0.218 HD
ENDBRANCH  33  38
ENDBRANCH   6  30
TORSDOF 11
ENDMDL
MODEL 8
REMARK VINA RESULT:      -5.4     15.511     18.014
REMARK  11 active torsions:
REMARK  status: ('A' for Active; 'I' for Inactive)
REMARK    1  A    between atoms: C_6  and  C_8 
REMARK    2  A    between atoms: C_10  and  O_11 
REMARK    3  A    between atoms: C_13  and  O_14 
REMARK    4  A    between atoms: C_19  and  O_20 
REMARK    5  A    between atoms: O_20  and  C_21 
REMARK    6  A    between atoms: C_23  and  C_33 
REMARK    7  A    between atoms: C_24  and  O_25 
REMARK    8  A    between atoms: C_27  and  O_28 
REMARK    9  A    between atoms: C_30  and  O_31 
REMARK   10  A    between atoms: C_33  and  O_34 
REMARK   11  A    between atoms: C_37  and  O_38 
ROOT
HETATM    1  O   UNK N   1      30.950  42.164  60.576  0.00  0.00    -0.287 OA
HETATM    2  C   UNK N   1      30.497  42.555  59.515  0.00  0.00     0.190 A 
HETATM    3  C   UNK N   1      30.314  43.932  59.259  0.00  0.00     0.081 A 
HETATM    4  C   UNK N   1      29.792  44.300  58.003  0.00  0.00     0.095 A 
HETATM    5  O   UNK N   1      29.504  43.381  57.091  0.00  0.00    -0.309 OA
HETATM    6  C   UNK N   1      29.638  42.077  57.303  0.00  0.00     0.090 A 
HETATM    7  C   UNK N   1      30.138  41.623  58.535  0.00  0.00     0.094 A 
HETATM    8  C   UNK N   1      29.550  45.635  57.701  0.00  0.00     0.075 A 
HETATM    9  C   UNK N   1      29.816  46.647  58.641  0.00  0.00     0.077 A 
HETATM   10  C   UNK N   1      30.360  46.294  59.883  0.00  0.00     0.074 A 
HETATM   11  C   UNK N   1      30.618  44.946  60.202  0.00  0.00     0.085 A 
ENDROOT
BRANCH   9  12
HETATM   12  O   UNK N   1      29.555  47.960  58.378  0.00  0.00    -0.318 OA
BRANCH  12  13
HETATM   13  C   UNK N   1      29.191  48.456  57.130  0.00  0.00     0.298 C 
HETATM   14  O   UNK N   1      27.777  48.518  56.983  0.00  0.00    -0.348 OA
HETATM   15  C   UNK N   1      27.184  49.446  57.882  0.00  0.00     0.179 C 
HETATM   16  C   UNK N   1      27.678  50.877  57.566  0.00  0.00     0.180 C 
HETATM   17  C   UNK N   1      29.214  50.912  57.727  0.00  0.00     0.183 C 
HETATM   18  C   UNK N   1      29.833  49.829  56.831  0.00  0.00     0.205 C 
BRANCH  15  19
HETATM   19  C   UNK N   1      25.658  49.337  57.747  0.00  0.00     0.198 C 
BRANCH  19  20
HETATM   20  O   UNK N   1      25.174  50.302  56.850  0.00  0.00    -0.398 OA
HETATM   21  H   UNK N   1      25.150  51.167  57.338  0.00  0.00     0.209 HD
ENDBRANCH  19  20
ENDBRANCH  15  19
BRANCH  16  22
HETATM   22  O   UNK N   1      27.072  51.806  58.429  0.00  0.00    -0.390 OA
HETATM   23  H   UNK N   1      26.484  52.374  57.866  0.00  0.00     0.210 HD
ENDBRANCH  16  22
BRANCH  17  24
HETATM   24  O   UNK N   1      29.575  50.676  59.066  0.00  0.00    -0.390 OA
HETATM   25  H   UNK N   1      30.029  51.497  59.390  0.00  0.00     0.210 HD
ENDBRANCH  17  24
BRANCH  18  26
HETATM   26  O   UNK N   1      29.596  50.167  55.487  0.00  0.00    -0.388 OA
HETATM   27  H   UNK N   1      29.851  49.378  54.941  0.00  0.00     0.210 HD
ENDBRANCH  18  26
ENDBRANCH  12  13
ENDBRANCH   9  12
BRANCH  11  28
HETATM   28  O   UNK N   1      31.143  44.632  61.406  0.00  0.00    -0.360 OA
HETATM   29  H   UNK N   1      31.143  45.258  62.144  0.00  0.00     0.217 HD
ENDBRANCH  11  28
BRANCH   6  30
HETATM   30  C   UNK N   1      29.232  41.154  56.213  0.00  0.00     0.001 A 
HETATM   31  C   UNK N   1      28.969  41.680  54.937  0.00  0.00     0.054 A 
HETATM   32  C   UNK N   1      28.580  40.844  53.886  0.00  0.00     0.102 A 
HETATM   33  C   UNK N   1      28.404  39.473  54.110  0.00  0.00     0.099 A 
HETATM   34  C   UNK N   1      28.654  38.940  55.383  0.00  0.00     0.040 A 
HETATM   35  C   UNK N   1      29.081  39.770  56.426  0.00  0.00     0.017 A 
BRANCH  32  36
HETATM   36  O   UNK N   1      28.384  41.366  52.656  0.00  0.00    -0.353 OA
HETATM   37  C   UNK N   1      29.283  42.267  52.123  0.00  0.00     0.210 C 
ENDBRANCH  32  36
BRANCH  33  38
HETATM   38  O   UNK N   1      27.997  38.677  53.101  0.00  0.00    -0.358 OA
HETATM   39  H   UNK N   1      27.077  38.666  52.798  0.00  0.00     0.218 HD
ENDBRANCH  33  38
ENDBRANCH   6  30
TORSDOF 11
ENDMDL
MODEL 9
REMARK VINA RESULT:      -5.4     22.827     25.103
REMARK  11 active torsions:
REMARK  status: ('A' for Active; 'I' for Inactive)
REMARK    1  A    between atoms: C_6  and  C_8 
REMARK    2  A    between atoms: C_10  and  O_11 
REMARK    3  A    between atoms: C_13  and  O_14 
REMARK    4  A    between atoms: C_19  and  O_20 
REMARK    5  A    between atoms: O_20  and  C_21 
REMARK    6  A    between atoms: C_23  and  C_33 
REMARK    7  A    between atoms: C_24  and  O_25 
REMARK    8  A    between atoms: C_27  and  O_28 
REMARK    9  A    between atoms: C_30  and  O_31 
REMARK   10  A    between atoms: C_33  and  O_34 
REMARK   11  A    between atoms: C_37  and  O_38 
ROOT
HETATM    1  O   UNK N   1      45.166  59.293  57.748  0.00  0.00    -0.287 OA
HETATM    2  C   UNK N   1      45.461  58.314  58.410  0.00  0.00     0.190 A 
HETATM    3  C   UNK N   1      46.602  57.539  58.106  0.00  0.00     0.081 A 
HETATM    4  C   UNK N   1      46.876  56.427  58.928  0.00  0.00     0.095 A 
HETATM    5  O   UNK N   1      46.095  56.137  59.960  0.00  0.00    -0.309 OA
HETATM    6  C   UNK N   1      45.000  56.825  60.263  0.00  0.00     0.090 A 
HETATM    7  C   UNK N   1      44.647  57.941  59.485  0.00  0.00     0.094 A 
HETATM    8  C   UNK N   1      47.960  55.600  58.661  0.00  0.00     0.075 A 
HETATM    9  C   UNK N   1      48.805  55.850  57.564  0.00  0.00     0.077 A 
HETATM   10  C   UNK N   1      48.557  56.968  56.757  0.00  0.00     0.074 A 
HETATM   11  C   UNK N   1      47.467  57.821  57.019  0.00  0.00     0.085 A 
ENDROOT
BRANCH   9  12
HETATM   12  O   UNK N   1      49.855  55.032  57.264  0.00  0.00    -0.318 OA
BRANCH  12  13
HETATM   13  C   UNK N   1      49.738  53.808  56.614  0.00  0.00     0.298 C 
HETATM   14  O   UNK N   1      49.410  53.975  55.239  0.00  0.00    -0.348 OA
HETATM   15  C   UNK N   1      50.446  54.625  54.515  0.00  0.00     0.179 C 
HETATM   16  C   UNK N   1      51.721  53.749  54.514  0.00  0.00     0.180 C 
HETATM   17  C   UNK N   1      52.169  53.535  55.977  0.00  0.00     0.183 C 
HETATM   18  C   UNK N   1      51.001  52.932  56.772  0.00  0.00     0.205 C 
BRANCH  15  19
HETATM   19  C   UNK N   1      49.944  54.885  53.086  0.00  0.00     0.198 C 
BRANCH  19  20
HETATM   20  O   UNK N   1      50.058  53.724  52.307  0.00  0.00    -0.398 OA
HETATM   21  H   UNK N   1      50.613  53.957  51.517  0.00  0.00     0.209 HD
ENDBRANCH  19  20
ENDBRANCH  15  19
BRANCH  16  22
HETATM   22  O   UNK N   1      52.741  54.369  53.773  0.00  0.00    -0.390 OA
HETATM   23  H   UNK N   1      53.599  54.114  54.204  0.00  0.00     0.210 HD
ENDBRANCH  16  22
BRANCH  17  24
HETATM   24  O   UNK N   1      52.552  54.757  56.559  0.00  0.00    -0.390 OA
HETATM   25  H   UNK N   1      52.857  54.552  57.482  0.00  0.00     0.210 HD
ENDBRANCH  17  24
BRANCH  18  26
HETATM   26  O   UNK N   1      50.736  51.644  56.276  0.00  0.00    -0.388 OA
HETATM   27  H   UNK N   1      51.184  51.002  56.887  0.00  0.00     0.210 HD
ENDBRANCH  18  26
ENDBRANCH  12  13
ENDBRANCH   9  12
BRANCH  11  28
HETATM   28  O   UNK N   1      47.250  58.893  56.226  0.00  0.00    -0.360 OA
HETATM   29  H   UNK N   1      47.962  59.305  55.715  0.00  0.00     0.217 HD
ENDBRANCH  11  28
BRANCH   6  30
HETATM   30  C   UNK N   1      44.189  56.363  61.417  0.00  0.00     0.001 A 
HETATM   31  C   UNK N   1      44.645  55.271  62.176  0.00  0.00     0.054 A 
HETATM   32  C   UNK N   1      43.907  54.803  63.267  0.00  0.00     0.102 A 
HETATM   33  C   UNK N   1      42.678  55.392  63.587  0.00  0.00     0.099 A 
HETATM   34  C   UNK N   1      42.211  56.476  62.829  0.00  0.00     0.040 A 
HETATM   35  C   UNK N   1      42.966  56.971  61.760  0.00  0.00     0.017 A 
BRANCH  32  36
HETATM   36  O   UNK N   1      44.392  53.786  64.013  0.00  0.00    -0.353 OA
HETATM   37  C   UNK N   1      44.646  52.556  63.444  0.00  0.00     0.210 C 
ENDBRANCH  32  36
BRANCH  33  38
HETATM   38  O   UNK N   1      41.956  54.916  64.621  0.00  0.00    -0.358 OA
HETATM   39  H   UNK N   1      41.109  55.311  64.877  0.00  0.00     0.218 HD
ENDBRANCH  33  38
ENDBRANCH   6  30
TORSDOF 11
ENDMDL
