MODEL 1
REMARK VINA RESULT:      -5.8      0.000      0.000
REMARK  11 active torsions:
REMARK  status: ('A' for Active; 'I' for Inactive)
REMARK    1  A    between atoms: C_6  and  C_8 
REMARK    2  A    between atoms: C_10  and  O_11 
REMARK    3  A    between atoms: C_13  and  O_14 
REMARK    4  A    between atoms: C_19  and  O_20 
REMARK    5  A    between atoms: O_20  and  C_21 
REMARK    6  A    between atoms: C_23  and  C_33 
REMARK    7  A    between atoms: C_24  and  O_25 
REMARK    8  A    between atoms: C_27  and  O_28 
REMARK    9  A    between atoms: C_30  and  O_31 
REMARK   10  A    between atoms: C_33  and  O_34 
REMARK   11  A    between atoms: C_37  and  O_38 
ROOT
HETATM    1  O   UNK N   1      44.823  56.921  61.281  0.00  0.00    -0.287 OA
HETATM    2  C   UNK N   1      45.426  55.956  60.845  0.00  0.00     0.190 A 
HETATM    3  C   UNK N   1      46.222  56.052  59.685  0.00  0.00     0.081 A 
HETATM    4  C   UNK N   1      46.902  54.892  59.253  0.00  0.00     0.095 A 
HETATM    5  O   UNK N   1      46.792  53.753  59.930  0.00  0.00    -0.309 OA
HETATM    6  C   UNK N   1      46.030  53.618  61.013  0.00  0.00     0.090 A 
HETATM    7  C   UNK N   1      45.322  54.730  61.503  0.00  0.00     0.094 A 
HETATM    8  C   UNK N   1      47.697  54.923  58.104  0.00  0.00     0.075 A 
HETATM    9  C   UNK N   1      47.825  56.110  57.360  0.00  0.00     0.077 A 
HETATM   10  C   UNK N   1      47.153  57.261  57.783  0.00  0.00     0.074 A 
HETATM   11  C   UNK N   1      46.360  57.250  58.943  0.00  0.00     0.085 A 
ENDROOT
BRANCH   9  12
HETATM   12  O   UNK N   1      48.608  56.187  56.252  0.00  0.00    -0.318 OA
BRANCH  12  13
HETATM   13  C   UNK N   1      49.983  56.377  56.252  0.00  0.00     0.298 C 
HETATM   14  O   UNK N   1      50.690  55.221  56.686  0.00  0.00    -0.348 OA
HETATM   15  C   UNK N   1      50.579  54.132  55.775  0.00  0.00     0.179 C 
HETATM   16  C   UNK N   1      51.109  54.503  54.365  0.00  0.00     0.180 C 
HETATM   17  C   UNK N   1      50.337  55.723  53.841  0.00  0.00     0.183 C 
HETATM   18  C   UNK N   1      50.462  56.858  54.870  0.00  0.00     0.205 C 
BRANCH  15  19
HETATM   19  C   UNK N   1      51.371  52.944  56.351  0.00  0.00     0.198 C 
BRANCH  19  20
HETATM   20  O   UNK N   1      50.729  51.723  56.089  0.00  0.00    -0.398 OA
HETATM   21  H   UNK N   1      50.783  51.572  55.109  0.00  0.00     0.209 HD
ENDBRANCH  19  20
ENDBRANCH  15  19
BRANCH  16  22
HETATM   22  O   UNK N   1      50.942  53.416  53.490  0.00  0.00    -0.390 OA
HETATM   23  H   UNK N   1      51.611  53.524  52.764  0.00  0.00     0.210 HD
ENDBRANCH  16  22
BRANCH  17  24
HETATM   24  O   UNK N   1      50.813  56.131  52.582  0.00  0.00    -0.390 OA
HETATM   25  H   UNK N   1      50.717  55.362  51.959  0.00  0.00     0.210 HD
ENDBRANCH  17  24
BRANCH  18  26
HETATM   26  O   UNK N   1      49.763  58.007  54.461  0.00  0.00    -0.388 OA
HETATM   27  H   UNK N   1      49.233  57.773  53.653  0.00  0.00     0.210 HD
ENDBRANCH  18  26
ENDBRANCH  12  13
ENDBRANCH   9  12
BRANCH  11  28
HETATM   28  O   UNK N   1      45.742  58.383  59.341  0.00  0.00    -0.360 OA
HETATM   29  H   UNK N   1      46.209  59.080  59.824  0.00  0.00     0.217 HD
ENDBRANCH  11  28
BRANCH   6  30
HETATM   30  C   UNK N   1      45.954  52.280  61.659  0.00  0.00     0.001 A 
HETATM   31  C   UNK N   1      46.559  51.180  61.026  0.00  0.00     0.054 A 
HETATM   32  C   UNK N   1      46.504  49.906  61.603  0.00  0.00     0.102 A 
HETATM   33  C   UNK N   1      45.810  49.708  62.803  0.00  0.00     0.099 A 
HETATM   34  C   UNK N   1      45.196  50.797  63.436  0.00  0.00     0.040 A 
HETATM   35  C   UNK N   1      45.277  52.077  62.879  0.00  0.00     0.017 A 
BRANCH  32  36
HETATM   36  O   UNK N   1      47.130  48.871  61.002  0.00  0.00    -0.353 OA
HETATM   37  C   UNK N   1      46.821  48.518  59.705  0.00  0.00     0.210 C 
ENDBRANCH  32  36
BRANCH  33  38
HETATM   38  O   UNK N   1      45.738  48.473  63.340  0.00  0.00    -0.358 OA
HETATM   39  H   UNK N   1      45.899  47.678  62.812  0.00  0.00     0.218 HD
ENDBRANCH  33  38
ENDBRANCH   6  30
TORSDOF 11
ENDMDL
MODEL 2
REMARK VINA RESULT:      -5.7     18.878     22.382
REMARK  11 active torsions:
REMARK  status: ('A' for Active; 'I' for Inactive)
REMARK    1  A    between atoms: C_6  and  C_8 
REMARK    2  A    between atoms: C_10  and  O_11 
REMARK    3  A    between atoms: C_13  and  O_14 
REMARK    4  A    between atoms: C_19  and  O_20 
REMARK    5  A    between atoms: O_20  and  C_21 
REMARK    6  A    between atoms: C_23  and  C_33 
REMARK    7  A    between atoms: C_24  and  O_25 
REMARK    8  A    between atoms: C_27  and  O_28 
REMARK    9  A    between atoms: C_30  and  O_31 
REMARK   10  A    between atoms: C_33  and  O_34 
REMARK   11  A    between atoms: C_37  and  O_38 
ROOT
HETATM    1  O   UNK N   1      31.549  43.528  60.806  0.00  0.00    -0.287 OA
HETATM    2  C   UNK N   1      30.898  44.064  59.925  0.00  0.00     0.190 A 
HETATM    3  C   UNK N   1      30.331  43.314  58.874  0.00  0.00     0.081 A 
HETATM    4  C   UNK N   1      29.577  44.007  57.901  0.00  0.00     0.095 A 
HETATM    5  O   UNK N   1      29.412  45.323  57.986  0.00  0.00    -0.309 OA
HETATM    6  C   UNK N   1      29.954  46.067  58.948  0.00  0.00     0.090 A 
HETATM    7  C   UNK N   1      30.718  45.448  59.953  0.00  0.00     0.094 A 
HETATM    8  C   UNK N   1      29.000  43.320  56.830  0.00  0.00     0.075 A 
HETATM    9  C   UNK N   1      29.166  41.929  56.706  0.00  0.00     0.077 A 
HETATM   10  C   UNK N   1      29.911  41.238  57.667  0.00  0.00     0.074 A 
HETATM   11  C   UNK N   1      30.488  41.913  58.757  0.00  0.00     0.085 A 
ENDROOT
BRANCH   9  12
HETATM   12  O   UNK N   1      28.600  41.221  55.694  0.00  0.00    -0.318 OA
BRANCH  12  13
HETATM   13  C   UNK N   1      27.300  41.380  55.232  0.00  0.00     0.298 C 
HETATM   14  O   UNK N   1      27.177  42.472  54.327  0.00  0.00    -0.348 OA
HETATM   15  C   UNK N   1      27.864  42.251  53.099  0.00  0.00     0.179 C 
HETATM   16  C   UNK N   1      27.351  40.980  52.371  0.00  0.00     0.180 C 
HETATM   17  C   UNK N   1      27.509  39.768  53.302  0.00  0.00     0.183 C 
HETATM   18  C   UNK N   1      26.779  40.066  54.620  0.00  0.00     0.205 C 
BRANCH  15  19
HETATM   19  C   UNK N   1      27.667  43.494  52.211  0.00  0.00     0.198 C 
BRANCH  19  20
HETATM   20  O   UNK N   1      28.815  43.767  51.450  0.00  0.00    -0.398 OA
HETATM   21  H   UNK N   1      29.551  43.946  52.092  0.00  0.00     0.209 HD
ENDBRANCH  19  20
ENDBRANCH  15  19
BRANCH  16  22
HETATM   22  O   UNK N   1      28.083  40.778  51.189  0.00  0.00    -0.390 OA
HETATM   23  H   UNK N   1      27.498  40.264  50.572  0.00  0.00     0.210 HD
ENDBRANCH  16  22
BRANCH  17  24
HETATM   24  O   UNK N   1      27.015  38.595  52.707  0.00  0.00    -0.390 OA
HETATM   25  H   UNK N   1      27.625  37.850  52.952  0.00  0.00     0.210 HD
ENDBRANCH  17  24
BRANCH  18  26
HETATM   26  O   UNK N   1      26.897  39.001  55.531  0.00  0.00    -0.388 OA
HETATM   27  H   UNK N   1      27.857  38.903  55.766  0.00  0.00     0.210 HD
ENDBRANCH  18  26
ENDBRANCH  12  13
ENDBRANCH   9  12
BRANCH  11  28
HETATM   28  O   UNK N   1      31.183  41.216  59.682  0.00  0.00    -0.360 OA
HETATM   29  H   UNK N   1      32.019  41.539  60.046  0.00  0.00     0.217 HD
ENDBRANCH  11  28
BRANCH   6  30
HETATM   30  C   UNK N   1      29.732  47.538  58.911  0.00  0.00     0.001 A 
HETATM   31  C   UNK N   1      29.981  48.237  57.717  0.00  0.00     0.054 A 
HETATM   32  C   UNK N   1      29.787  49.621  57.648  0.00  0.00     0.102 A 
HETATM   33  C   UNK N   1      29.377  50.331  58.784  0.00  0.00     0.099 A 
HETATM   34  C   UNK N   1      29.135  49.644  59.981  0.00  0.00     0.040 A 
HETATM   35  C   UNK N   1      29.297  48.256  60.044  0.00  0.00     0.017 A 
BRANCH  32  36
HETATM   36  O   UNK N   1      29.989  50.268  56.480  0.00  0.00    -0.353 OA
HETATM   37  C   UNK N   1      31.139  50.057  55.747  0.00  0.00     0.210 C 
ENDBRANCH  32  36
BRANCH  33  38
HETATM   38  O   UNK N   1      29.218  51.669  58.717  0.00  0.00    -0.358 OA
HETATM   39  H   UNK N   1      29.636  52.264  59.355  0.00  0.00     0.218 HD
ENDBRANCH  33  38
ENDBRANCH   6  30
TORSDOF 11
ENDMDL
MODEL 3
REMARK VINA RESULT:      -5.3     18.941     22.498
REMARK  11 active torsions:
REMARK  status: ('A' for Active; 'I' for Inactive)
REMARK    1  A    between atoms: C_6  and  C_8 
REMARK    2  A    between atoms: C_10  and  O_11 
REMARK    3  A    between atoms: C_13  and  O_14 
REMARK    4  A    between atoms: C_19  and  O_20 
REMARK    5  A    between atoms: O_20  and  C_21 
REMARK    6  A    between atoms: C_23  and  C_33 
REMARK    7  A    between atoms: C_24  and  O_25 
REMARK    8  A    between atoms: C_27  and  O_28 
REMARK    9  A    between atoms: C_30  and  O_31 
REMARK   10  A    between atoms: C_33  and  O_34 
REMARK   11  A    between atoms: C_37  and  O_38 
ROOT
HETATM    1  O   UNK N   1      31.467  43.557  60.932  0.00  0.00    -0.287 OA
HETATM    2  C   UNK N   1      30.828  44.079  60.036  0.00  0.00     0.190 A 
HETATM    3  C   UNK N   1      30.253  43.312  59.001  0.00  0.00     0.081 A 
HETATM    4  C   UNK N   1      29.514  43.992  58.008  0.00  0.00     0.095 A 
HETATM    5  O   UNK N   1      29.368  45.312  58.059  0.00  0.00    -0.309 OA
HETATM    6  C   UNK N   1      29.917  46.071  59.005  0.00  0.00     0.090 A 
HETATM    7  C   UNK N   1      30.669  45.466  60.028  0.00  0.00     0.094 A 
HETATM    8  C   UNK N   1      28.930  43.286  56.952  0.00  0.00     0.075 A 
HETATM    9  C   UNK N   1      29.075  41.891  56.864  0.00  0.00     0.077 A 
HETATM   10  C   UNK N   1      29.807  41.213  57.845  0.00  0.00     0.074 A 
HETATM   11  C   UNK N   1      30.389  41.906  58.919  0.00  0.00     0.085 A 
ENDROOT
BRANCH   9  12
HETATM   12  O   UNK N   1      28.502  41.166  55.867  0.00  0.00    -0.318 OA
BRANCH  12  13
HETATM   13  C   UNK N   1      29.081  40.901  54.633  0.00  0.00     0.298 C 
HETATM   14  O   UNK N   1      29.283  39.509  54.416  0.00  0.00    -0.348 OA
HETATM   15  C   UNK N   1      28.061  38.787  54.290  0.00  0.00     0.179 C 
HETATM   16  C   UNK N   1      27.193  39.322  53.121  0.00  0.00     0.180 C 
HETATM   17  C   UNK N   1      26.915  40.816  53.342  0.00  0.00     0.183 C 
HETATM   18  C   UNK N   1      28.258  41.545  53.502  0.00  0.00     0.205 C 
BRANCH  15  19
HETATM   19  C   UNK N   1      28.405  37.303  54.069  0.00  0.00     0.198 C 
BRANCH  19  20
HETATM   20  O   UNK N   1      28.313  36.952  52.712  0.00  0.00    -0.398 OA
HETATM   21  H   UNK N   1      28.254  37.799  52.198  0.00  0.00     0.209 HD
ENDBRANCH  19  20
ENDBRANCH  15  19
BRANCH  16  22
HETATM   22  O   UNK N   1      25.983  38.610  53.060  0.00  0.00    -0.390 OA
HETATM   23  H   UNK N   1      26.059  37.977  52.299  0.00  0.00     0.210 HD
ENDBRANCH  16  22
BRANCH  17  24
HETATM   24  O   UNK N   1      26.168  41.362  52.283  0.00  0.00    -0.390 OA
HETATM   25  H   UNK N   1      26.758  41.400  51.484  0.00  0.00     0.210 HD
ENDBRANCH  17  24
BRANCH  18  26
HETATM   26  O   UNK N   1      28.077  42.922  53.724  0.00  0.00    -0.388 OA
HETATM   27  H   UNK N   1      28.636  43.414  53.066  0.00  0.00     0.210 HD
ENDBRANCH  18  26
ENDBRANCH  12  13
ENDBRANCH   9  12
BRANCH  11  28
HETATM   28  O   UNK N   1      31.070  41.222  59.865  0.00  0.00    -0.360 OA
HETATM   29  H   UNK N   1      31.156  41.549  60.772  0.00  0.00     0.217 HD
ENDBRANCH  11  28
BRANCH   6  30
HETATM   30  C   UNK N   1      29.718  47.544  58.930  0.00  0.00     0.001 A 
HETATM   31  C   UNK N   1      29.935  48.203  57.707  0.00  0.00     0.054 A 
HETATM   32  C   UNK N   1      29.760  49.587  57.601  0.00  0.00     0.102 A 
HETATM   33  C   UNK N   1      29.403  50.338  58.729  0.00  0.00     0.099 A 
HETATM   34  C   UNK N   1      29.195  49.691  59.954  0.00  0.00     0.040 A 
HETATM   35  C   UNK N   1      29.337  48.304  60.055  0.00  0.00     0.017 A 
BRANCH  32  36
HETATM   36  O   UNK N   1      29.930  50.194  56.407  0.00  0.00    -0.353 OA
HETATM   37  C   UNK N   1      31.171  50.236  55.808  0.00  0.00     0.210 C 
ENDBRANCH  32  36
BRANCH  33  38
HETATM   38  O   UNK N   1      29.263  51.675  58.626  0.00  0.00    -0.358 OA
HETATM   39  H   UNK N   1      29.530  52.156  57.830  0.00  0.00     0.218 HD
ENDBRANCH  33  38
ENDBRANCH   6  30
TORSDOF 11
ENDMDL
MODEL 4
REMARK VINA RESULT:      -5.3     19.886     23.096
REMARK  11 active torsions:
REMARK  status: ('A' for Active; 'I' for Inactive)
REMARK    1  A    between atoms: C_6  and  C_8 
REMARK    2  A    between atoms: C_10  and  O_11 
REMARK    3  A    between atoms: C_13  and  O_14 
REMARK    4  A    between atoms: C_19  and  O_20 
REMARK    5  A    between atoms: O_20  and  C_21 
REMARK    6  A    between atoms: C_23  and  C_33 
REMARK    7  A    between atoms: C_24  and  O_25 
REMARK    8  A    between atoms: C_27  and  O_28 
REMARK    9  A    between atoms: C_30  and  O_31 
REMARK   10  A    between atoms: C_33  and  O_34 
REMARK   11  A    between atoms: C_37  and  O_38 
ROOT
HETATM    1  O   UNK N   1      32.920  42.903  57.012  0.00  0.00    -0.287 OA
HETATM    2  C   UNK N   1      31.732  43.096  57.202  0.00  0.00     0.190 A 
HETATM    3  C   UNK N   1      30.763  42.697  56.259  0.00  0.00     0.081 A 
HETATM    4  C   UNK N   1      29.406  42.943  56.561  0.00  0.00     0.095 A 
HETATM    5  O   UNK N   1      29.064  43.529  57.704  0.00  0.00    -0.309 OA
HETATM    6  C   UNK N   1      29.951  43.943  58.606  0.00  0.00     0.090 A 
HETATM    7  C   UNK N   1      31.322  43.733  58.375  0.00  0.00     0.094 A 
HETATM    8  C   UNK N   1      28.402  42.579  55.659  0.00  0.00     0.075 A 
HETATM    9  C   UNK N   1      28.732  41.967  54.437  0.00  0.00     0.077 A 
HETATM   10  C   UNK N   1      30.075  41.722  54.133  0.00  0.00     0.074 A 
HETATM   11  C   UNK N   1      31.095  42.070  55.034  0.00  0.00     0.085 A 
ENDROOT
BRANCH   9  12
HETATM   12  O   UNK N   1      27.784  41.577  53.545  0.00  0.00    -0.318 OA
BRANCH  12  13
HETATM   13  C   UNK N   1      28.024  40.854  52.384  0.00  0.00     0.298 C 
HETATM   14  O   UNK N   1      27.185  39.710  52.274  0.00  0.00    -0.348 OA
HETATM   15  C   UNK N   1      25.813  40.047  52.092  0.00  0.00     0.179 C 
HETATM   16  C   UNK N   1      25.595  40.911  50.821  0.00  0.00     0.180 C 
HETATM   17  C   UNK N   1      26.453  42.181  50.922  0.00  0.00     0.183 C 
HETATM   18  C   UNK N   1      27.915  41.767  51.148  0.00  0.00     0.205 C 
BRANCH  15  19
HETATM   19  C   UNK N   1      25.008  38.738  51.995  0.00  0.00     0.198 C 
BRANCH  19  20
HETATM   20  O   UNK N   1      24.928  38.281  50.670  0.00  0.00    -0.398 OA
HETATM   21  H   UNK N   1      25.858  38.224  50.327  0.00  0.00     0.209 HD
ENDBRANCH  19  20
ENDBRANCH  15  19
BRANCH  16  22
HETATM   22  O   UNK N   1      24.238  41.253  50.703  0.00  0.00    -0.390 OA
HETATM   23  H   UNK N   1      24.155  42.204  50.978  0.00  0.00     0.210 HD
ENDBRANCH  16  22
BRANCH  17  24
HETATM   24  O   UNK N   1      26.328  42.978  49.771  0.00  0.00    -0.390 OA
HETATM   25  H   UNK N   1      26.072  42.383  49.017  0.00  0.00     0.210 HD
ENDBRANCH  17  24
BRANCH  18  26
HETATM   26  O   UNK N   1      28.758  42.885  51.266  0.00  0.00    -0.388 OA
HETATM   27  H   UNK N   1      28.752  43.175  52.217  0.00  0.00     0.210 HD
ENDBRANCH  18  26
ENDBRANCH  12  13
ENDBRANCH   9  12
BRANCH  11  28
HETATM   28  O   UNK N   1      32.382  41.799  54.723  0.00  0.00    -0.360 OA
HETATM   29  H   UNK N   1      32.967  41.325  55.331  0.00  0.00     0.217 HD
ENDBRANCH  11  28
BRANCH   6  30
HETATM   30  C   UNK N   1      29.447  44.625  59.829  0.00  0.00     0.001 A 
HETATM   31  C   UNK N   1      30.277  45.548  60.489  0.00  0.00     0.054 A 
HETATM   32  C   UNK N   1      29.837  46.206  61.642  0.00  0.00     0.102 A 
HETATM   33  C   UNK N   1      28.573  45.921  62.175  0.00  0.00     0.099 A 
HETATM   34  C   UNK N   1      27.742  44.995  61.529  0.00  0.00     0.040 A 
HETATM   35  C   UNK N   1      28.167  44.361  60.358  0.00  0.00     0.017 A 
BRANCH  32  36
HETATM   36  O   UNK N   1      30.632  47.122  62.236  0.00  0.00    -0.353 OA
HETATM   37  C   UNK N   1      31.620  46.732  63.117  0.00  0.00     0.210 C 
ENDBRANCH  32  36
BRANCH  33  38
HETATM   38  O   UNK N   1      28.166  46.538  63.302  0.00  0.00    -0.358 OA
HETATM   39  H   UNK N   1      27.806  47.437  63.289  0.00  0.00     0.218 HD
ENDBRANCH  33  38
ENDBRANCH   6  30
TORSDOF 11
ENDMDL
MODEL 5
REMARK VINA RESULT:      -5.2     18.198     21.356
REMARK  11 active torsions:
REMARK  status: ('A' for Active; 'I' for Inactive)
REMARK    1  A    between atoms: C_6  and  C_8 
REMARK    2  A    between atoms: C_10  and  O_11 
REMARK    3  A    between atoms: C_13  and  O_14 
REMARK    4  A    between atoms: C_19  and  O_20 
REMARK    5  A    between atoms: O_20  and  C_21 
REMARK    6  A    between atoms: C_23  and  C_33 
REMARK    7  A    between atoms: C_24  and  O_25 
REMARK    8  A    between atoms: C_27  and  O_28 
REMARK    9  A    between atoms: C_30  and  O_31 
REMARK   10  A    between atoms: C_33  and  O_34 
REMARK   11  A    between atoms: C_37  and  O_38 
ROOT
HETATM    1  O   UNK N   1      31.677  42.496  60.047  0.00  0.00    -0.287 OA
HETATM    2  C   UNK N   1      30.901  42.877  59.188  0.00  0.00     0.190 A 
HETATM    3  C   UNK N   1      30.369  44.182  59.207  0.00  0.00     0.081 A 
HETATM    4  C   UNK N   1      29.489  44.552  58.167  0.00  0.00     0.095 A 
HETATM    5  O   UNK N   1      29.183  43.690  57.202  0.00  0.00    -0.309 OA
HETATM    6  C   UNK N   1      29.645  42.442  57.165  0.00  0.00     0.090 A 
HETATM    7  C   UNK N   1      30.526  42.001  58.169  0.00  0.00     0.094 A 
HETATM    8  C   UNK N   1      28.921  45.829  58.138  0.00  0.00     0.075 A 
HETATM    9  C   UNK N   1      29.216  46.760  59.149  0.00  0.00     0.077 A 
HETATM   10  C   UNK N   1      30.087  46.399  60.183  0.00  0.00     0.074 A 
HETATM   11  C   UNK N   1      30.676  45.124  60.219  0.00  0.00     0.085 A 
ENDROOT
BRANCH   9  12
HETATM   12  O   UNK N   1      28.704  48.019  59.145  0.00  0.00    -0.318 OA
BRANCH  12  13
HETATM   13  C   UNK N   1      29.447  49.188  59.248  0.00  0.00     0.298 C 
HETATM   14  O   UNK N   1      30.287  49.397  58.118  0.00  0.00    -0.348 OA
HETATM   15  C   UNK N   1      29.553  49.661  56.926  0.00  0.00     0.179 C 
HETATM   16  C   UNK N   1      28.644  50.910  57.072  0.00  0.00     0.180 C 
HETATM   17  C   UNK N   1      27.690  50.702  58.257  0.00  0.00     0.183 C 
HETATM   18  C   UNK N   1      28.524  50.393  59.508  0.00  0.00     0.205 C 
BRANCH  15  19
HETATM   19  C   UNK N   1      30.561  49.861  55.779  0.00  0.00     0.198 C 
BRANCH  19  20
HETATM   20  O   UNK N   1      31.770  50.403  56.247  0.00  0.00    -0.398 OA
HETATM   21  H   UNK N   1      32.484  50.087  55.635  0.00  0.00     0.209 HD
ENDBRANCH  19  20
ENDBRANCH  15  19
BRANCH  16  22
HETATM   22  O   UNK N   1      27.910  51.107  55.890  0.00  0.00    -0.390 OA
HETATM   23  H   UNK N   1      27.962  52.076  55.676  0.00  0.00     0.210 HD
ENDBRANCH  16  22
BRANCH  17  24
HETATM   24  O   UNK N   1      26.873  51.829  58.462  0.00  0.00    -0.390 OA
HETATM   25  H   UNK N   1      26.813  52.320  57.600  0.00  0.00     0.210 HD
ENDBRANCH  17  24
BRANCH  18  26
HETATM   26  O   UNK N   1      27.710  50.175  60.634  0.00  0.00    -0.388 OA
HETATM   27  H   UNK N   1      28.215  50.468  61.438  0.00  0.00     0.210 HD
ENDBRANCH  18  26
ENDBRANCH  12  13
ENDBRANCH   9  12
BRANCH  11  28
HETATM   28  O   UNK N   1      31.531  44.811  61.217  0.00  0.00    -0.360 OA
HETATM   29  H   UNK N   1      32.294  45.367  61.431  0.00  0.00     0.217 HD
ENDBRANCH  11  28
BRANCH   6  30
HETATM   30  C   UNK N   1      29.196  41.556  56.057  0.00  0.00     0.001 A 
HETATM   31  C   UNK N   1      28.844  42.130  54.823  0.00  0.00     0.054 A 
HETATM   32  C   UNK N   1      28.414  41.329  53.760  0.00  0.00     0.102 A 
HETATM   33  C   UNK N   1      28.293  39.943  53.929  0.00  0.00     0.099 A 
HETATM   34  C   UNK N   1      28.632  39.363  55.159  0.00  0.00     0.040 A 
HETATM   35  C   UNK N   1      29.093  40.159  56.212  0.00  0.00     0.017 A 
BRANCH  32  36
HETATM   36  O   UNK N   1      28.123  41.894  52.569  0.00  0.00    -0.353 OA
HETATM   37  C   UNK N   1      29.114  42.471  51.802  0.00  0.00     0.210 C 
ENDBRANCH  32  36
BRANCH  33  38
HETATM   38  O   UNK N   1      27.852  39.179  52.909  0.00  0.00    -0.358 OA
HETATM   39  H   UNK N   1      28.017  39.418  51.986  0.00  0.00     0.218 HD
ENDBRANCH  33  38
ENDBRANCH   6  30
TORSDOF 11
ENDMDL
MODEL 6
REMARK VINA RESULT:      -5.1      2.379      8.933
REMARK  11 active torsions:
REMARK  status: ('A' for Active; 'I' for Inactive)
REMARK    1  A    between atoms: C_6  and  C_8 
REMARK    2  A    between atoms: C_10  and  O_11 
REMARK    3  A    between atoms: C_13  and  O_14 
REMARK    4  A    between atoms: C_19  and  O_20 
REMARK    5  A    between atoms: O_20  and  C_21 
REMARK    6  A    between atoms: C_23  and  C_33 
REMARK    7  A    between atoms: C_24  and  O_25 
REMARK    8  A    between atoms: C_27  and  O_28 
REMARK    9  A    between atoms: C_30  and  O_31 
REMARK   10  A    between atoms: C_33  and  O_34 
REMARK   11  A    between atoms: C_37  and  O_38 
ROOT
HETATM    1  O   UNK N   1      49.846  51.580  59.834  0.00  0.00    -0.287 OA
HETATM    2  C   UNK N   1      49.346  52.560  59.313  0.00  0.00     0.190 A 
HETATM    3  C   UNK N   1      48.263  53.237  59.911  0.00  0.00     0.081 A 
HETATM    4  C   UNK N   1      47.749  54.375  59.251  0.00  0.00     0.095 A 
HETATM    5  O   UNK N   1      48.280  54.789  58.105  0.00  0.00    -0.309 OA
HETATM    6  C   UNK N   1      49.285  54.161  57.497  0.00  0.00     0.090 A 
HETATM    7  C   UNK N   1      49.848  53.019  58.094  0.00  0.00     0.094 A 
HETATM    8  C   UNK N   1      46.670  55.080  59.790  0.00  0.00     0.075 A 
HETATM    9  C   UNK N   1      46.079  54.663  60.996  0.00  0.00     0.077 A 
HETATM   10  C   UNK N   1      46.584  53.536  61.653  0.00  0.00     0.074 A 
HETATM   11  C   UNK N   1      47.676  52.823  61.131  0.00  0.00     0.085 A 
ENDROOT
BRANCH   9  12
HETATM   12  O   UNK N   1      45.045  55.335  61.565  0.00  0.00    -0.318 OA
BRANCH  12  13
HETATM   13  C   UNK N   1      45.006  56.704  61.793  0.00  0.00     0.298 C 
HETATM   14  O   UNK N   1      44.488  57.425  60.680  0.00  0.00    -0.348 OA
HETATM   15  C   UNK N   1      43.108  57.162  60.447  0.00  0.00     0.179 C 
HETATM   16  C   UNK N   1      42.236  57.516  61.681  0.00  0.00     0.180 C 
HETATM   17  C   UNK N   1      42.738  56.722  62.897  0.00  0.00     0.183 C 
HETATM   18  C   UNK N   1      44.233  57.015  63.088  0.00  0.00     0.205 C 
BRANCH  15  19
HETATM   19  C   UNK N   1      42.665  57.984  59.223  0.00  0.00     0.198 C 
BRANCH  19  20
HETATM   20  O   UNK N   1      41.613  57.357  58.537  0.00  0.00    -0.398 OA
HETATM   21  H   UNK N   1      40.889  58.030  58.440  0.00  0.00     0.209 HD
ENDBRANCH  19  20
ENDBRANCH  15  19
BRANCH  16  22
HETATM   22  O   UNK N   1      40.891  57.203  61.422  0.00  0.00    -0.390 OA
HETATM   23  H   UNK N   1      40.520  56.811  62.256  0.00  0.00     0.210 HD
ENDBRANCH  16  22
BRANCH  17  24
HETATM   24  O   UNK N   1      42.009  57.043  64.055  0.00  0.00    -0.390 OA
HETATM   25  H   UNK N   1      41.264  57.643  63.788  0.00  0.00     0.210 HD
ENDBRANCH  17  24
BRANCH  18  26
HETATM   26  O   UNK N   1      44.765  56.305  64.180  0.00  0.00    -0.388 OA
HETATM   27  H   UNK N   1      45.211  55.490  63.828  0.00  0.00     0.210 HD
ENDBRANCH  18  26
ENDBRANCH  12  13
ENDBRANCH   9  12
BRANCH  11  28
HETATM   28  O   UNK N   1      48.157  51.753  61.800  0.00  0.00    -0.360 OA
HETATM   29  H   UNK N   1      47.645  50.937  61.898  0.00  0.00     0.217 HD
ENDBRANCH  11  28
BRANCH   6  30
HETATM   30  C   UNK N   1      49.765  54.695  56.194  0.00  0.00     0.001 A 
HETATM   31  C   UNK N   1      50.690  53.945  55.446  0.00  0.00     0.054 A 
HETATM   32  C   UNK N   1      51.166  54.419  54.219  0.00  0.00     0.102 A 
HETATM   33  C   UNK N   1      50.751  55.668  53.739  0.00  0.00     0.099 A 
HETATM   34  C   UNK N   1      49.836  56.427  54.482  0.00  0.00     0.040 A 
HETATM   35  C   UNK N   1      49.335  55.941  55.694  0.00  0.00     0.017 A 
BRANCH  32  36
HETATM   36  O   UNK N   1      52.019  53.664  53.495  0.00  0.00    -0.353 OA
HETATM   37  C   UNK N   1      53.197  53.205  54.047  0.00  0.00     0.210 C 
ENDBRANCH  32  36
BRANCH  33  38
HETATM   38  O   UNK N   1      51.233  56.131  52.568  0.00  0.00    -0.358 OA
HETATM   39  H   UNK N   1      50.663  56.566  51.918  0.00  0.00     0.218 HD
ENDBRANCH  33  38
ENDBRANCH   6  30
TORSDOF 11
ENDMDL
MODEL 7
REMARK VINA RESULT:      -5.0      2.475      9.434
REMARK  11 active torsions:
REMARK  status: ('A' for Active; 'I' for Inactive)
REMARK    1  A    between atoms: C_6  and  C_8 
REMARK    2  A    between atoms: C_10  and  O_11 
REMARK    3  A    between atoms: C_13  and  O_14 
REMARK    4  A    between atoms: C_19  and  O_20 
REMARK    5  A    between atoms: O_20  and  C_21 
REMARK    6  A    between atoms: C_23  and  C_33 
REMARK    7  A    between atoms: C_24  and  O_25 
REMARK    8  A    between atoms: C_27  and  O_28 
REMARK    9  A    between atoms: C_30  and  O_31 
REMARK   10  A    between atoms: C_33  and  O_34 
REMARK   11  A    between atoms: C_37  and  O_38 
ROOT
HETATM    1  O   UNK N   1      52.287  49.821  58.466  0.00  0.00    -0.287 OA
HETATM    2  C   UNK N   1      51.557  50.789  58.345  0.00  0.00     0.190 A 
HETATM    3  C   UNK N   1      50.618  51.129  59.341  0.00  0.00     0.081 A 
HETATM    4  C   UNK N   1      49.820  52.275  59.133  0.00  0.00     0.095 A 
HETATM    5  O   UNK N   1      49.960  53.005  58.031  0.00  0.00    -0.309 OA
HETATM    6  C   UNK N   1      50.816  52.701  57.058  0.00  0.00     0.090 A 
HETATM    7  C   UNK N   1      51.645  51.573  57.194  0.00  0.00     0.094 A 
HETATM    8  C   UNK N   1      48.866  52.655  60.080  0.00  0.00     0.075 A 
HETATM    9  C   UNK N   1      48.685  51.898  61.251  0.00  0.00     0.077 A 
HETATM   10  C   UNK N   1      49.473  50.761  61.462  0.00  0.00     0.074 A 
HETATM   11  C   UNK N   1      50.446  50.373  60.525  0.00  0.00     0.085 A 
ENDROOT
BRANCH   9  12
HETATM   12  O   UNK N   1      47.785  52.248  62.208  0.00  0.00    -0.318 OA
BRANCH  12  13
HETATM   13  C   UNK N   1      46.414  52.354  62.019  0.00  0.00     0.298 C 
HETATM   14  O   UNK N   1      45.892  51.292  61.228  0.00  0.00    -0.348 OA
HETATM   15  C   UNK N   1      45.967  50.029  61.883  0.00  0.00     0.179 C 
HETATM   16  C   UNK N   1      45.198  50.031  63.230  0.00  0.00     0.180 C 
HETATM   17  C   UNK N   1      45.764  51.139  64.131  0.00  0.00     0.183 C 
HETATM   18  C   UNK N   1      45.690  52.472  63.372  0.00  0.00     0.205 C 
BRANCH  15  19
HETATM   19  C   UNK N   1      45.385  48.964  60.934  0.00  0.00     0.198 C 
BRANCH  19  20
HETATM   20  O   UNK N   1      46.018  47.723  61.107  0.00  0.00    -0.398 OA
HETATM   21  H   UNK N   1      46.992  47.903  61.181  0.00  0.00     0.209 HD
ENDBRANCH  19  20
ENDBRANCH  15  19
BRANCH  16  22
HETATM   22  O   UNK N   1      45.333  48.782  63.859  0.00  0.00    -0.390 OA
HETATM   23  H   UNK N   1      45.468  48.959  64.828  0.00  0.00     0.210 HD
ENDBRANCH  16  22
BRANCH  17  24
HETATM   24  O   UNK N   1      45.068  51.214  65.351  0.00  0.00    -0.390 OA
HETATM   25  H   UNK N   1      44.472  50.422  65.409  0.00  0.00     0.210 HD
ENDBRANCH  17  24
BRANCH  18  26
HETATM   26  O   UNK N   1      46.208  53.533  64.135  0.00  0.00    -0.388 OA
HETATM   27  H   UNK N   1      46.920  53.975  63.602  0.00  0.00     0.210 HD
ENDBRANCH  18  26
ENDBRANCH  12  13
ENDBRANCH   9  12
BRANCH  11  28
HETATM   28  O   UNK N   1      51.208  49.284  60.767  0.00  0.00    -0.360 OA
HETATM   29  H   UNK N   1      51.667  49.156  61.610  0.00  0.00     0.217 HD
ENDBRANCH  11  28
BRANCH   6  30
HETATM   30  C   UNK N   1      50.851  53.572  55.852  0.00  0.00     0.001 A 
HETATM   31  C   UNK N   1      49.976  54.670  55.776  0.00  0.00     0.054 A 
HETATM   32  C   UNK N   1      49.979  55.508  54.656  0.00  0.00     0.102 A 
HETATM   33  C   UNK N   1      50.832  55.237  53.578  0.00  0.00     0.099 A 
HETATM   34  C   UNK N   1      51.701  54.139  53.641  0.00  0.00     0.040 A 
HETATM   35  C   UNK N   1      51.723  53.319  54.773  0.00  0.00     0.017 A 
BRANCH  32  36
HETATM   36  O   UNK N   1      49.163  56.583  54.621  0.00  0.00    -0.353 OA
HETATM   37  C   UNK N   1      48.561  57.049  55.772  0.00  0.00     0.210 C 
ENDBRANCH  32  36
BRANCH  33  38
HETATM   38  O   UNK N   1      50.810  56.033  52.490  0.00  0.00    -0.358 OA
HETATM   39  H   UNK N   1      51.352  55.845  51.710  0.00  0.00     0.218 HD
ENDBRANCH  33  38
ENDBRANCH   6  30
TORSDOF 11
ENDMDL
MODEL 8
REMARK VINA RESULT:      -4.9     18.028     20.472
REMARK  11 active torsions:
REMARK  status: ('A' for Active; 'I' for Inactive)
REMARK    1  A    between atoms: C_6  and  C_8 
REMARK    2  A    between atoms: C_10  and  O_11 
REMARK    3  A    between atoms: C_13  and  O_14 
REMARK    4  A    between atoms: C_19  and  O_20 
REMARK    5  A    between atoms: O_20  and  C_21 
REMARK    6  A    between atoms: C_23  and  C_33 
REMARK    7  A    between atoms: C_24  and  O_25 
REMARK    8  A    between atoms: C_27  and  O_28 
REMARK    9  A    between atoms: C_30  and  O_31 
REMARK   10  A    between atoms: C_33  and  O_34 
REMARK   11  A    between atoms: C_37  and  O_38 
ROOT
HETATM    1  O   UNK N   1      29.554  51.286  56.754  0.00  0.00    -0.287 OA
HETATM    2  C   UNK N   1      29.303  50.697  57.791  0.00  0.00     0.190 A 
HETATM    3  C   UNK N   1      29.695  49.357  57.987  0.00  0.00     0.081 A 
HETATM    4  C   UNK N   1      29.380  48.751  59.224  0.00  0.00     0.095 A 
HETATM    5  O   UNK N   1      28.738  49.434  60.167  0.00  0.00    -0.309 OA
HETATM    6  C   UNK N   1      28.329  50.691  60.007  0.00  0.00     0.090 A 
HETATM    7  C   UNK N   1      28.606  51.360  58.802  0.00  0.00     0.094 A 
HETATM    8  C   UNK N   1      29.734  47.422  59.472  0.00  0.00     0.075 A 
HETATM    9  C   UNK N   1      30.404  46.670  58.491  0.00  0.00     0.077 A 
HETATM   10  C   UNK N   1      30.718  47.266  57.264  0.00  0.00     0.074 A 
HETATM   11  C   UNK N   1      30.380  48.604  57.004  0.00  0.00     0.085 A 
ENDROOT
BRANCH   9  12
HETATM   12  O   UNK N   1      30.787  45.383  58.703  0.00  0.00    -0.318 OA
BRANCH  12  13
HETATM   13  C   UNK N   1      31.331  44.540  57.743  0.00  0.00     0.298 C 
HETATM   14  O   UNK N   1      32.580  43.991  58.150  0.00  0.00    -0.348 OA
HETATM   15  C   UNK N   1      32.456  43.091  59.247  0.00  0.00     0.179 C 
HETATM   16  C   UNK N   1      31.508  41.907  58.918  0.00  0.00     0.180 C 
HETATM   17  C   UNK N   1      30.132  42.459  58.517  0.00  0.00     0.183 C 
HETATM   18  C   UNK N   1      30.322  43.444  57.354  0.00  0.00     0.205 C 
BRANCH  15  19
HETATM   19  C   UNK N   1      33.862  42.572  59.600  0.00  0.00     0.198 C 
BRANCH  19  20
HETATM   20  O   UNK N   1      34.851  43.211  58.835  0.00  0.00    -0.398 OA
HETATM   21  H   UNK N   1      35.534  43.550  59.471  0.00  0.00     0.209 HD
ENDBRANCH  19  20
ENDBRANCH  15  19
BRANCH  16  22
HETATM   22  O   UNK N   1      31.383  41.069  60.039  0.00  0.00    -0.390 OA
HETATM   23  H   UNK N   1      32.304  40.855  60.344  0.00  0.00     0.210 HD
ENDBRANCH  16  22
BRANCH  17  24
HETATM   24  O   UNK N   1      29.248  41.425  58.162  0.00  0.00    -0.390 OA
HETATM   25  H   UNK N   1      28.365  41.629  58.570  0.00  0.00     0.210 HD
ENDBRANCH  17  24
BRANCH  18  26
HETATM   26  O   UNK N   1      29.098  44.003  56.943  0.00  0.00    -0.388 OA
HETATM   27  H   UNK N   1      29.256  44.958  56.722  0.00  0.00     0.210 HD
ENDBRANCH  18  26
ENDBRANCH  12  13
ENDBRANCH   9  12
BRANCH  11  28
HETATM   28  O   UNK N   1      30.717  49.160  55.819  0.00  0.00    -0.360 OA
HETATM   29  H   UNK N   1      30.056  49.362  55.142  0.00  0.00     0.217 HD
ENDBRANCH  11  28
BRANCH   6  30
HETATM   30  C   UNK N   1      27.581  51.335  61.121  0.00  0.00     0.001 A 
HETATM   31  C   UNK N   1      27.328  52.717  61.066  0.00  0.00     0.054 A 
HETATM   32  C   UNK N   1      26.631  53.356  62.096  0.00  0.00     0.102 A 
HETATM   33  C   UNK N   1      26.209  52.627  63.216  0.00  0.00     0.099 A 
HETATM   34  C   UNK N   1      26.464  51.251  63.284  0.00  0.00     0.040 A 
HETATM   35  C   UNK N   1      27.133  50.604  62.240  0.00  0.00     0.017 A 
BRANCH  32  36
HETATM   36  O   UNK N   1      26.359  54.675  62.004  0.00  0.00    -0.353 OA
HETATM   37  C   UNK N   1      27.161  55.509  61.252  0.00  0.00     0.210 C 
ENDBRANCH  32  36
BRANCH  33  38
HETATM   38  O   UNK N   1      25.560  53.254  64.219  0.00  0.00    -0.358 OA
HETATM   39  H   UNK N   1      24.933  52.788  64.790  0.00  0.00     0.218 HD
ENDBRANCH  33  38
ENDBRANCH   6  30
TORSDOF 11
ENDMDL
MODEL 9
REMARK VINA RESULT:      -4.8      3.305      5.845
REMARK  11 active torsions:
REMARK  status: ('A' for Active; 'I' for Inactive)
REMARK    1  A    between atoms: C_6  and  C_8 
REMARK    2  A    between atoms: C_10  and  O_11 
REMARK    3  A    between atoms: C_13  and  O_14 
REMARK    4  A    between atoms: C_19  and  O_20 
REMARK    5  A    between atoms: O_20  and  C_21 
REMARK    6  A    between atoms: C_23  and  C_33 
REMARK    7  A    between atoms: C_24  and  O_25 
REMARK    8  A    between atoms: C_27  and  O_28 
REMARK    9  A    between atoms: C_30  and  O_31 
REMARK   10  A    between atoms: C_33  and  O_34 
REMARK   11  A    between atoms: C_37  and  O_38 
ROOT
HETATM    1  O   UNK N   1      47.434  55.553  63.107  0.00  0.00    -0.287 OA
HETATM    2  C   UNK N   1      47.114  55.745  61.947  0.00  0.00     0.190 A 
HETATM    3  C   UNK N   1      47.929  55.312  60.880  0.00  0.00     0.081 A 
HETATM    4  C   UNK N   1      47.481  55.559  59.564  0.00  0.00     0.095 A 
HETATM    5  O   UNK N   1      46.324  56.178  59.349  0.00  0.00    -0.309 OA
HETATM    6  C   UNK N   1      45.542  56.624  60.330  0.00  0.00     0.090 A 
HETATM    7  C   UNK N   1      45.923  56.416  61.667  0.00  0.00     0.094 A 
HETATM    8  C   UNK N   1      48.251  55.163  58.467  0.00  0.00     0.075 A 
HETATM    9  C   UNK N   1      49.484  54.515  58.661  0.00  0.00     0.077 A 
HETATM   10  C   UNK N   1      49.933  54.269  59.963  0.00  0.00     0.074 A 
HETATM   11  C   UNK N   1      49.165  54.650  61.076  0.00  0.00     0.085 A 
ENDROOT
BRANCH   9  12
HETATM   12  O   UNK N   1      50.250  54.092  57.621  0.00  0.00    -0.318 OA
BRANCH  12  13
HETATM   13  C   UNK N   1      49.792  53.365  56.531  0.00  0.00     0.298 C 
HETATM   14  O   UNK N   1      49.442  54.199  55.432  0.00  0.00    -0.348 OA
HETATM   15  C   UNK N   1      50.568  54.851  54.854  0.00  0.00     0.179 C 
HETATM   16  C   UNK N   1      51.629  53.836  54.352  0.00  0.00     0.180 C 
HETATM   17  C   UNK N   1      52.066  52.944  55.524  0.00  0.00     0.183 C 
HETATM   18  C   UNK N   1      50.817  52.288  56.131  0.00  0.00     0.205 C 
BRANCH  15  19
HETATM   19  C   UNK N   1      50.068  55.725  53.689  0.00  0.00     0.198 C 
BRANCH  19  20
HETATM   20  O   UNK N   1      50.097  55.023  52.472  0.00  0.00    -0.398 OA
HETATM   21  H   UNK N   1      49.220  54.568  52.380  0.00  0.00     0.209 HD
ENDBRANCH  19  20
ENDBRANCH  15  19
BRANCH  16  22
HETATM   22  O   UNK N   1      52.737  54.522  53.829  0.00  0.00    -0.390 OA
HETATM   23  H   UNK N   1      53.431  54.535  54.539  0.00  0.00     0.210 HD
ENDBRANCH  16  22
BRANCH  17  24
HETATM   24  O   UNK N   1      52.995  51.972  55.111  0.00  0.00    -0.390 OA
HETATM   25  H   UNK N   1      53.682  51.888  55.823  0.00  0.00     0.210 HD
ENDBRANCH  17  24
BRANCH  18  26
HETATM   26  O   UNK N   1      51.143  51.465  57.224  0.00  0.00    -0.388 OA
HETATM   27  H   UNK N   1      50.306  51.035  57.544  0.00  0.00     0.210 HD
ENDBRANCH  18  26
ENDBRANCH  12  13
ENDBRANCH   9  12
BRANCH  11  28
HETATM   28  O   UNK N   1      49.612  54.377  62.321  0.00  0.00    -0.360 OA
HETATM   29  H   UNK N   1      49.065  53.916  62.973  0.00  0.00     0.217 HD
ENDBRANCH  11  28
BRANCH   6  30
HETATM   30  C   UNK N   1      44.291  57.341  59.962  0.00  0.00     0.001 A 
HETATM   31  C   UNK N   1      43.156  57.200  60.780  0.00  0.00     0.054 A 
HETATM   32  C   UNK N   1      41.962  57.857  60.463  0.00  0.00     0.102 A 
HETATM   33  C   UNK N   1      41.875  58.634  59.301  0.00  0.00     0.099 A 
HETATM   34  C   UNK N   1      42.998  58.772  58.474  0.00  0.00     0.040 A 
HETATM   35  C   UNK N   1      44.202  58.143  58.806  0.00  0.00     0.017 A 
BRANCH  32  36
HETATM   36  O   UNK N   1      40.897  57.745  61.285  0.00  0.00    -0.353 OA
HETATM   37  C   UNK N   1      40.988  57.035  62.465  0.00  0.00     0.210 C 
ENDBRANCH  32  36
BRANCH  33  38
HETATM   38  O   UNK N   1      40.714  59.243  58.986  0.00  0.00    -0.358 OA
HETATM   39  H   UNK N   1      40.608  59.746  58.167  0.00  0.00     0.218 HD
ENDBRANCH  33  38
ENDBRANCH   6  30
TORSDOF 11
ENDMDL
