MODEL 1
REMARK VINA RESULT:      -7.3      0.000      0.000
REMARK  5 active torsions:
REMARK  status: ('A' for Active; 'I' for Inactive)
REMARK    1  A    between atoms: C_4  and  O_5 
REMARK    2  A    between atoms: C_7  and  O_8 
REMARK    3  A    between atoms: C_10  and  O_11 
REMARK    4  A    between atoms: C_16  and  C_18 
REMARK    5  A    between atoms: C_21  and  O_22 
ROOT
HETATM    1  O   UNK N   1      37.574  44.956  47.616  0.00  0.00    -0.287 OA
HETATM    2  C   UNK N   1      38.654  45.293  48.057  0.00  0.00     0.190 A 
HETATM    3  C   UNK N   1      39.519  46.180  47.358  0.00  0.00     0.084 A 
HETATM    4  C   UNK N   1      39.223  46.776  46.085  0.00  0.00     0.119 A 
HETATM    5  C   UNK N   1      40.161  47.680  45.499  0.00  0.00     0.136 A 
HETATM    6  C   UNK N   1      41.361  47.978  46.164  0.00  0.00     0.107 A 
HETATM    7  C   UNK N   1      41.647  47.372  47.394  0.00  0.00     0.078 A 
HETATM    8  C   UNK N   1      40.751  46.489  47.982  0.00  0.00     0.096 A 
HETATM    9  O   UNK N   1      41.080  45.954  49.154  0.00  0.00    -0.309 OA
HETATM   10  C   UNK N   1      40.283  45.138  49.831  0.00  0.00     0.090 A 
HETATM   11  C   UNK N   1      39.039  44.790  49.298  0.00  0.00     0.094 A 
ENDROOT
BRANCH  10  12
HETATM   12  C   UNK N   1      40.746  44.616  51.142  0.00  0.00    -0.002 A 
HETATM   13  C   UNK N   1      41.782  45.280  51.821  0.00  0.00     0.017 A 
HETATM   14  C   UNK N   1      42.244  44.802  53.049  0.00  0.00     0.037 A 
HETATM   15  C   UNK N   1      41.661  43.667  53.628  0.00  0.00     0.065 A 
HETATM   16  C   UNK N   1      40.617  43.011  52.969  0.00  0.00     0.037 A 
HETATM   17  C   UNK N   1      40.166  43.473  51.731  0.00  0.00     0.017 A 
BRANCH  15  18
HETATM   18  O   UNK N   1      42.094  43.200  54.815  0.00  0.00    -0.361 OA
HETATM   19  H   UNK N   1      41.843  42.323  55.138  0.00  0.00     0.217 HD
ENDBRANCH  15  18
ENDBRANCH  10  12
BRANCH   4  20
HETATM   20  O   UNK N   1      38.077  46.518  45.414  0.00  0.00    -0.357 OA
HETATM   21  H   UNK N   1      37.735  45.667  45.130  0.00  0.00     0.218 HD
ENDBRANCH   4  20
BRANCH   6  22
HETATM   22  O   UNK N   1      42.227  48.860  45.589  0.00  0.00    -0.353 OA
HETATM   23  C   UNK N   1      43.496  49.150  46.055  0.00  0.00     0.210 C 
ENDBRANCH   6  22
BRANCH   5  24
HETATM   24  O   UNK N   1      39.949  48.293  44.296  0.00  0.00    -0.351 OA
HETATM   25  C   UNK N   1      39.192  49.419  44.043  0.00  0.00     0.210 C 
ENDBRANCH   5  24
TORSDOF 5
ENDMDL
MODEL 2
REMARK VINA RESULT:      -6.3      1.642      3.408
REMARK  5 active torsions:
REMARK  status: ('A' for Active; 'I' for Inactive)
REMARK    1  A    between atoms: C_4  and  O_5 
REMARK    2  A    between atoms: C_7  and  O_8 
REMARK    3  A    between atoms: C_10  and  O_11 
REMARK    4  A    between atoms: C_16  and  C_18 
REMARK    5  A    between atoms: C_21  and  O_22 
ROOT
HETATM    1  O   UNK N   1      43.865  48.277  46.962  0.00  0.00    -0.287 OA
HETATM    2  C   UNK N   1      42.761  47.855  47.236  0.00  0.00     0.190 A 
HETATM    3  C   UNK N   1      41.601  48.216  46.496  0.00  0.00     0.084 A 
HETATM    4  C   UNK N   1      41.600  49.093  45.358  0.00  0.00     0.119 A 
HETATM    5  C   UNK N   1      40.372  49.354  44.675  0.00  0.00     0.136 A 
HETATM    6  C   UNK N   1      39.180  48.758  45.118  0.00  0.00     0.107 A 
HETATM    7  C   UNK N   1      39.193  47.922  46.243  0.00  0.00     0.078 A 
HETATM    8  C   UNK N   1      40.374  47.656  46.923  0.00  0.00     0.096 A 
HETATM    9  O   UNK N   1      40.318  46.849  47.978  0.00  0.00    -0.309 OA
HETATM   10  C   UNK N   1      41.388  46.485  48.674  0.00  0.00     0.090 A 
HETATM   11  C   UNK N   1      42.645  46.979  48.314  0.00  0.00     0.094 A 
ENDROOT
BRANCH  10  12
HETATM   12  C   UNK N   1      41.209  45.562  49.823  0.00  0.00    -0.002 A 
HETATM   13  C   UNK N   1      41.996  45.737  50.975  0.00  0.00     0.017 A 
HETATM   14  C   UNK N   1      41.857  44.874  52.065  0.00  0.00     0.037 A 
HETATM   15  C   UNK N   1      40.912  43.840  52.029  0.00  0.00     0.065 A 
HETATM   16  C   UNK N   1      40.113  43.671  50.895  0.00  0.00     0.037 A 
HETATM   17  C   UNK N   1      40.264  44.517  49.794  0.00  0.00     0.017 A 
BRANCH  15  18
HETATM   18  O   UNK N   1      40.764  43.007  53.077  0.00  0.00    -0.361 OA
HETATM   19  H   UNK N   1      41.314  43.085  53.869  0.00  0.00     0.217 HD
ENDBRANCH  15  18
ENDBRANCH  10  12
BRANCH   4  20
HETATM   20  O   UNK N   1      42.725  49.685  44.898  0.00  0.00    -0.357 OA
HETATM   21  H   UNK N   1      43.154  50.480  45.225  0.00  0.00     0.218 HD
ENDBRANCH   4  20
BRANCH   6  22
HETATM   22  O   UNK N   1      38.028  49.009  44.434  0.00  0.00    -0.353 OA
HETATM   23  C   UNK N   1      37.763  48.595  43.142  0.00  0.00     0.210 C 
ENDBRANCH   6  22
BRANCH   5  24
HETATM   24  O   UNK N   1      40.289  50.170  43.581  0.00  0.00    -0.351 OA
HETATM   25  C   UNK N   1      40.105  51.537  43.559  0.00  0.00     0.210 C 
ENDBRANCH   5  24
TORSDOF 5
ENDMDL
MODEL 3
REMARK VINA RESULT:      -6.0      2.783      7.733
REMARK  5 active torsions:
REMARK  status: ('A' for Active; 'I' for Inactive)
REMARK    1  A    between atoms: C_4  and  O_5 
REMARK    2  A    between atoms: C_7  and  O_8 
REMARK    3  A    between atoms: C_10  and  O_11 
REMARK    4  A    between atoms: C_16  and  C_18 
REMARK    5  A    between atoms: C_21  and  O_22 
ROOT
HETATM    1  O   UNK N   1      38.296  46.778  48.177  0.00  0.00    -0.287 OA
HETATM    2  C   UNK N   1      39.056  46.856  47.233  0.00  0.00     0.190 A 
HETATM    3  C   UNK N   1      40.086  45.902  47.002  0.00  0.00     0.084 A 
HETATM    4  C   UNK N   1      40.336  44.755  47.829  0.00  0.00     0.119 A 
HETATM    5  C   UNK N   1      41.381  43.848  47.473  0.00  0.00     0.136 A 
HETATM    6  C   UNK N   1      42.155  44.083  46.325  0.00  0.00     0.107 A 
HETATM    7  C   UNK N   1      41.914  45.218  45.540  0.00  0.00     0.078 A 
HETATM    8  C   UNK N   1      40.905  46.113  45.867  0.00  0.00     0.096 A 
HETATM    9  O   UNK N   1      40.724  47.167  45.077  0.00  0.00    -0.309 OA
HETATM   10  C   UNK N   1      39.761  48.060  45.263  0.00  0.00     0.090 A 
HETATM   11  C   UNK N   1      38.894  47.922  46.351  0.00  0.00     0.094 A 
ENDROOT
BRANCH  10  12
HETATM   12  C   UNK N   1      39.640  49.187  44.304  0.00  0.00    -0.002 A 
HETATM   13  C   UNK N   1      40.410  50.347  44.504  0.00  0.00     0.017 A 
HETATM   14  C   UNK N   1      40.305  51.426  43.623  0.00  0.00     0.037 A 
HETATM   15  C   UNK N   1      39.448  51.352  42.516  0.00  0.00     0.065 A 
HETATM   16  C   UNK N   1      38.694  50.195  42.300  0.00  0.00     0.037 A 
HETATM   17  C   UNK N   1      38.778  49.123  43.190  0.00  0.00     0.017 A 
BRANCH  15  18
HETATM   18  O   UNK N   1      39.344  52.384  41.657  0.00  0.00    -0.361 OA
HETATM   19  H   UNK N   1      39.766  52.363  40.786  0.00  0.00     0.217 HD
ENDBRANCH  15  18
ENDBRANCH  10  12
BRANCH   4  20
HETATM   20  O   UNK N   1      39.612  44.491  48.941  0.00  0.00    -0.357 OA
HETATM   21  H   UNK N   1      39.897  44.529  49.857  0.00  0.00     0.218 HD
ENDBRANCH   4  20
BRANCH   6  22
HETATM   22  O   UNK N   1      43.131  43.188  45.999  0.00  0.00    -0.353 OA
HETATM   23  C   UNK N   1      43.321  42.637  44.745  0.00  0.00     0.210 C 
ENDBRANCH   6  22
BRANCH   5  24
HETATM   24  O   UNK N   1      41.676  42.731  48.203  0.00  0.00    -0.351 OA
HETATM   25  C   UNK N   1      41.776  42.620  49.575  0.00  0.00     0.210 C 
ENDBRANCH   5  24
TORSDOF 5
ENDMDL
MODEL 4
REMARK VINA RESULT:      -5.8      1.851      7.467
REMARK  5 active torsions:
REMARK  status: ('A' for Active; 'I' for Inactive)
REMARK    1  A    between atoms: C_4  and  O_5 
REMARK    2  A    between atoms: C_7  and  O_8 
REMARK    3  A    between atoms: C_10  and  O_11 
REMARK    4  A    between atoms: C_16  and  C_18 
REMARK    5  A    between atoms: C_21  and  O_22 
ROOT
HETATM    1  O   UNK N   1      37.450  45.196  46.824  0.00  0.00    -0.287 OA
HETATM    2  C   UNK N   1      38.399  45.952  46.788  0.00  0.00     0.190 A 
HETATM    3  C   UNK N   1      39.497  45.840  47.685  0.00  0.00     0.084 A 
HETATM    4  C   UNK N   1      39.617  44.838  48.708  0.00  0.00     0.119 A 
HETATM    5  C   UNK N   1      40.787  44.808  49.526  0.00  0.00     0.136 A 
HETATM    6  C   UNK N   1      41.807  45.753  49.331  0.00  0.00     0.107 A 
HETATM    7  C   UNK N   1      41.667  46.738  48.344  0.00  0.00     0.078 A 
HETATM    8  C   UNK N   1      40.538  46.788  47.538  0.00  0.00     0.096 A 
HETATM    9  O   UNK N   1      40.470  47.743  46.616  0.00  0.00    -0.309 OA
HETATM   10  C   UNK N   1      39.465  47.858  45.758  0.00  0.00     0.090 A 
HETATM   11  C   UNK N   1      38.399  46.955  45.821  0.00  0.00     0.094 A 
ENDROOT
BRANCH  10  12
HETATM   12  C   UNK N   1      39.504  48.954  44.756  0.00  0.00    -0.002 A 
HETATM   13  C   UNK N   1      40.404  50.019  44.936  0.00  0.00     0.017 A 
HETATM   14  C   UNK N   1      40.452  51.068  44.015  0.00  0.00     0.037 A 
HETATM   15  C   UNK N   1      39.619  51.054  42.889  0.00  0.00     0.065 A 
HETATM   16  C   UNK N   1      38.735  49.990  42.692  0.00  0.00     0.037 A 
HETATM   17  C   UNK N   1      38.668  48.950  43.622  0.00  0.00     0.017 A 
BRANCH  15  18
HETATM   18  O   UNK N   1      39.661  52.058  41.990  0.00  0.00    -0.361 OA
HETATM   19  H   UNK N   1      40.370  52.121  41.334  0.00  0.00     0.217 HD
ENDBRANCH  15  18
ENDBRANCH  10  12
BRANCH   4  20
HETATM   20  O   UNK N   1      38.659  43.909  48.927  0.00  0.00    -0.357 OA
HETATM   21  H   UNK N   1      38.235  43.331  48.287  0.00  0.00     0.218 HD
ENDBRANCH   4  20
BRANCH   6  22
HETATM   22  O   UNK N   1      42.921  45.686  50.113  0.00  0.00    -0.353 OA
HETATM   23  C   UNK N   1      43.022  46.176  51.402  0.00  0.00     0.210 C 
ENDBRANCH   6  22
BRANCH   5  24
HETATM   24  O   UNK N   1      40.979  43.883  50.514  0.00  0.00    -0.351 OA
HETATM   25  C   UNK N   1      40.358  43.820  51.745  0.00  0.00     0.210 C 
ENDBRANCH   5  24
TORSDOF 5
ENDMDL
MODEL 5
REMARK VINA RESULT:      -5.6      1.688      2.170
REMARK  5 active torsions:
REMARK  status: ('A' for Active; 'I' for Inactive)
REMARK    1  A    between atoms: C_4  and  O_5 
REMARK    2  A    between atoms: C_7  and  O_8 
REMARK    3  A    between atoms: C_10  and  O_11 
REMARK    4  A    between atoms: C_16  and  C_18 
REMARK    5  A    between atoms: C_21  and  O_22 
ROOT
HETATM    1  O   UNK N   1      42.061  44.062  46.216  0.00  0.00    -0.287 OA
HETATM    2  C   UNK N   1      41.600  44.764  47.092  0.00  0.00     0.190 A 
HETATM    3  C   UNK N   1      40.967  46.008  46.819  0.00  0.00     0.084 A 
HETATM    4  C   UNK N   1      40.792  46.564  45.505  0.00  0.00     0.119 A 
HETATM    5  C   UNK N   1      40.109  47.809  45.356  0.00  0.00     0.136 A 
HETATM    6  C   UNK N   1      39.616  48.481  46.487  0.00  0.00     0.107 A 
HETATM    7  C   UNK N   1      39.813  47.939  47.764  0.00  0.00     0.078 A 
HETATM    8  C   UNK N   1      40.476  46.731  47.932  0.00  0.00     0.096 A 
HETATM    9  O   UNK N   1      40.624  46.267  49.170  0.00  0.00    -0.309 OA
HETATM   10  C   UNK N   1      41.195  45.103  49.448  0.00  0.00     0.090 A 
HETATM   11  C   UNK N   1      41.696  44.315  48.408  0.00  0.00     0.094 A 
ENDROOT
BRANCH  10  12
HETATM   12  C   UNK N   1      41.288  44.676  50.867  0.00  0.00    -0.002 A 
HETATM   13  C   UNK N   1      42.012  45.466  51.778  0.00  0.00     0.017 A 
HETATM   14  C   UNK N   1      42.124  45.079  53.116  0.00  0.00     0.037 A 
HETATM   15  C   UNK N   1      41.495  43.912  53.567  0.00  0.00     0.065 A 
HETATM   16  C   UNK N   1      40.759  43.130  52.672  0.00  0.00     0.037 A 
HETATM   17  C   UNK N   1      40.661  43.501  51.330  0.00  0.00     0.017 A 
BRANCH  15  18
HETATM   18  O   UNK N   1      41.592  43.533  54.857  0.00  0.00    -0.361 OA
HETATM   19  H   UNK N   1      42.407  43.155  55.215  0.00  0.00     0.217 HD
ENDBRANCH  15  18
ENDBRANCH  10  12
BRANCH   4  20
HETATM   20  O   UNK N   1      41.249  45.948  44.391  0.00  0.00    -0.357 OA
HETATM   21  H   UNK N   1      41.875  45.223  44.329  0.00  0.00     0.218 HD
ENDBRANCH   4  20
BRANCH   6  22
HETATM   22  O   UNK N   1      38.949  49.657  46.311  0.00  0.00    -0.353 OA
HETATM   23  C   UNK N   1      38.550  50.507  47.326  0.00  0.00     0.210 C 
ENDBRANCH   6  22
BRANCH   5  24
HETATM   24  O   UNK N   1      39.895  48.399  44.142  0.00  0.00    -0.351 OA
HETATM   25  C   UNK N   1      38.712  48.908  43.646  0.00  0.00     0.210 C 
ENDBRANCH   5  24
TORSDOF 5
ENDMDL
MODEL 6
REMARK VINA RESULT:      -5.3      1.914      8.103
REMARK  5 active torsions:
REMARK  status: ('A' for Active; 'I' for Inactive)
REMARK    1  A    between atoms: C_4  and  O_5 
REMARK    2  A    between atoms: C_7  and  O_8 
REMARK    3  A    between atoms: C_10  and  O_11 
REMARK    4  A    between atoms: C_16  and  C_18 
REMARK    5  A    between atoms: C_21  and  O_22 
ROOT
HETATM    1  O   UNK N   1      43.489  48.647  47.317  0.00  0.00    -0.287 OA
HETATM    2  C   UNK N   1      42.371  48.242  47.074  0.00  0.00     0.190 A 
HETATM    3  C   UNK N   1      41.737  47.239  47.859  0.00  0.00     0.084 A 
HETATM    4  C   UNK N   1      42.324  46.609  49.009  0.00  0.00     0.119 A 
HETATM    5  C   UNK N   1      41.573  45.637  49.737  0.00  0.00     0.136 A 
HETATM    6  C   UNK N   1      40.272  45.302  49.326  0.00  0.00     0.107 A 
HETATM    7  C   UNK N   1      39.720  45.907  48.189  0.00  0.00     0.078 A 
HETATM    8  C   UNK N   1      40.433  46.854  47.466  0.00  0.00     0.096 A 
HETATM    9  O   UNK N   1      39.849  47.396  46.402  0.00  0.00    -0.309 OA
HETATM   10  C   UNK N   1      40.414  48.344  45.665  0.00  0.00     0.090 A 
HETATM   11  C   UNK N   1      41.696  48.797  45.989  0.00  0.00     0.094 A 
ENDROOT
BRANCH  10  12
HETATM   12  C   UNK N   1      39.659  48.892  44.509  0.00  0.00    -0.002 A 
HETATM   13  C   UNK N   1      38.468  48.264  44.104  0.00  0.00     0.017 A 
HETATM   14  C   UNK N   1      37.747  48.753  43.013  0.00  0.00     0.037 A 
HETATM   15  C   UNK N   1      38.192  49.889  42.325  0.00  0.00     0.065 A 
HETATM   16  C   UNK N   1      39.366  50.530  42.732  0.00  0.00     0.037 A 
HETATM   17  C   UNK N   1      40.102  50.033  43.809  0.00  0.00     0.017 A 
BRANCH  15  18
HETATM   18  O   UNK N   1      37.501  50.373  41.275  0.00  0.00    -0.361 OA
HETATM   19  H   UNK N   1      37.731  50.137  40.365  0.00  0.00     0.217 HD
ENDBRANCH  15  18
ENDBRANCH  10  12
BRANCH   4  20
HETATM   20  O   UNK N   1      43.572  46.906  49.439  0.00  0.00    -0.357 OA
HETATM   21  H   UNK N   1      44.345  46.336  49.454  0.00  0.00     0.218 HD
ENDBRANCH   4  20
BRANCH   6  22
HETATM   22  O   UNK N   1      39.571  44.386  50.053  0.00  0.00    -0.353 OA
HETATM   23  C   UNK N   1      39.864  43.038  50.134  0.00  0.00     0.210 C 
ENDBRANCH   6  22
BRANCH   5  24
HETATM   24  O   UNK N   1      42.057  45.000  50.844  0.00  0.00    -0.351 OA
HETATM   25  C   UNK N   1      42.042  45.446  52.150  0.00  0.00     0.210 C 
ENDBRANCH   5  24
TORSDOF 5
ENDMDL
MODEL 7
REMARK VINA RESULT:      -5.2      3.086      3.604
REMARK  5 active torsions:
REMARK  status: ('A' for Active; 'I' for Inactive)
REMARK    1  A    between atoms: C_4  and  O_5 
REMARK    2  A    between atoms: C_7  and  O_8 
REMARK    3  A    between atoms: C_10  and  O_11 
REMARK    4  A    between atoms: C_16  and  C_18 
REMARK    5  A    between atoms: C_21  and  O_22 
ROOT
HETATM    1  O   UNK N   1      40.346  47.242  47.487  0.00  0.00    -0.287 OA
HETATM    2  C   UNK N   1      40.808  46.184  47.862  0.00  0.00     0.190 A 
HETATM    3  C   UNK N   1      41.268  45.189  46.956  0.00  0.00     0.084 A 
HETATM    4  C   UNK N   1      41.251  45.317  45.525  0.00  0.00     0.119 A 
HETATM    5  C   UNK N   1      41.774  44.259  44.720  0.00  0.00     0.136 A 
HETATM    6  C   UNK N   1      42.295  43.105  45.327  0.00  0.00     0.107 A 
HETATM    7  C   UNK N   1      42.284  42.983  46.723  0.00  0.00     0.078 A 
HETATM    8  C   UNK N   1      41.780  43.999  47.525  0.00  0.00     0.096 A 
HETATM    9  O   UNK N   1      41.806  43.823  48.843  0.00  0.00    -0.309 OA
HETATM   10  C   UNK N   1      41.398  44.743  49.707  0.00  0.00     0.090 A 
HETATM   11  C   UNK N   1      40.890  45.957  49.235  0.00  0.00     0.094 A 
ENDROOT
BRANCH  10  12
HETATM   12  C   UNK N   1      41.491  44.447  51.160  0.00  0.00    -0.002 A 
HETATM   13  C   UNK N   1      41.377  43.117  51.600  0.00  0.00     0.017 A 
HETATM   14  C   UNK N   1      41.448  42.813  52.961  0.00  0.00     0.037 A 
HETATM   15  C   UNK N   1      41.660  43.831  53.900  0.00  0.00     0.065 A 
HETATM   16  C   UNK N   1      41.794  45.155  53.470  0.00  0.00     0.037 A 
HETATM   17  C   UNK N   1      41.701  45.466  52.112  0.00  0.00     0.017 A 
BRANCH  15  18
HETATM   18  O   UNK N   1      41.738  43.550  55.215  0.00  0.00    -0.361 OA
HETATM   19  H   UNK N   1      41.565  42.660  55.554  0.00  0.00     0.217 HD
ENDBRANCH  15  18
ENDBRANCH  10  12
BRANCH   4  20
HETATM   20  O   UNK N   1      40.761  46.413  44.902  0.00  0.00    -0.357 OA
HETATM   21  H   UNK N   1      40.983  46.748  44.030  0.00  0.00     0.218 HD
ENDBRANCH   4  20
BRANCH   6  22
HETATM   22  O   UNK N   1      42.807  42.121  44.533  0.00  0.00    -0.353 OA
HETATM   23  C   UNK N   1      44.146  41.794  44.432  0.00  0.00     0.210 C 
ENDBRANCH   6  22
BRANCH   5  24
HETATM   24  O   UNK N   1      41.801  44.309  43.354  0.00  0.00    -0.351 OA
HETATM   25  C   UNK N   1      42.754  44.901  42.550  0.00  0.00     0.210 C 
ENDBRANCH   5  24
TORSDOF 5
ENDMDL
MODEL 8
REMARK VINA RESULT:      -4.9     14.453     17.213
REMARK  5 active torsions:
REMARK  status: ('A' for Active; 'I' for Inactive)
REMARK    1  A    between atoms: C_4  and  O_5 
REMARK    2  A    between atoms: C_7  and  O_8 
REMARK    3  A    between atoms: C_10  and  O_11 
REMARK    4  A    between atoms: C_16  and  C_18 
REMARK    5  A    between atoms: C_21  and  O_22 
ROOT
HETATM    1  O   UNK N   1      31.297  48.819  64.542  0.00  0.00    -0.287 OA
HETATM    2  C   UNK N   1      32.372  49.224  64.150  0.00  0.00     0.190 A 
HETATM    3  C   UNK N   1      32.644  50.608  63.966  0.00  0.00     0.084 A 
HETATM    4  C   UNK N   1      31.707  51.666  64.226  0.00  0.00     0.119 A 
HETATM    5  C   UNK N   1      32.111  53.023  64.034  0.00  0.00     0.136 A 
HETATM    6  C   UNK N   1      33.413  53.314  63.594  0.00  0.00     0.107 A 
HETATM    7  C   UNK N   1      34.309  52.272  63.324  0.00  0.00     0.078 A 
HETATM    8  C   UNK N   1      33.938  50.946  63.501  0.00  0.00     0.096 A 
HETATM    9  O   UNK N   1      34.838  50.005  63.233  0.00  0.00    -0.309 OA
HETATM   10  C   UNK N   1      34.612  48.709  63.413  0.00  0.00     0.090 A 
HETATM   11  C   UNK N   1      33.366  48.285  63.884  0.00  0.00     0.094 A 
ENDROOT
BRANCH  10  12
HETATM   12  C   UNK N   1      35.699  47.747  63.099  0.00  0.00    -0.002 A 
HETATM   13  C   UNK N   1      35.497  46.377  63.341  0.00  0.00     0.017 A 
HETATM   14  C   UNK N   1      36.508  45.453  63.066  0.00  0.00     0.037 A 
HETATM   15  C   UNK N   1      37.726  45.882  62.523  0.00  0.00     0.065 A 
HETATM   16  C   UNK N   1      37.929  47.240  62.262  0.00  0.00     0.037 A 
HETATM   17  C   UNK N   1      36.929  48.170  62.556  0.00  0.00     0.017 A 
BRANCH  15  18
HETATM   18  O   UNK N   1      38.705  44.999  62.248  0.00  0.00    -0.361 OA
HETATM   19  H   UNK N   1      39.606  45.288  62.044  0.00  0.00     0.217 HD
ENDBRANCH  15  18
ENDBRANCH  10  12
BRANCH   4  20
HETATM   20  O   UNK N   1      30.446  51.428  64.653  0.00  0.00    -0.357 OA
HETATM   21  H   UNK N   1      30.099  50.633  65.064  0.00  0.00     0.218 HD
ENDBRANCH   4  20
BRANCH   6  22
HETATM   22  O   UNK N   1      33.776  54.620  63.441  0.00  0.00    -0.353 OA
HETATM   23  C   UNK N   1      35.044  55.125  63.657  0.00  0.00     0.210 C 
ENDBRANCH   6  22
BRANCH   5  24
HETATM   24  O   UNK N   1      31.282  54.085  64.266  0.00  0.00    -0.351 OA
HETATM   25  C   UNK N   1      30.356  54.638  63.405  0.00  0.00     0.210 C 
ENDBRANCH   5  24
TORSDOF 5
ENDMDL
MODEL 9
REMARK VINA RESULT:      -4.9     12.451     15.324
REMARK  5 active torsions:
REMARK  status: ('A' for Active; 'I' for Inactive)
REMARK    1  A    between atoms: C_4  and  O_5 
REMARK    2  A    between atoms: C_7  and  O_8 
REMARK    3  A    between atoms: C_10  and  O_11 
REMARK    4  A    between atoms: C_16  and  C_18 
REMARK    5  A    between atoms: C_21  and  O_22 
ROOT
HETATM    1  O   UNK N   1      27.129  43.053  58.315  0.00  0.00    -0.287 OA
HETATM    2  C   UNK N   1      28.019  42.928  57.498  0.00  0.00     0.190 A 
HETATM    3  C   UNK N   1      29.390  43.109  57.832  0.00  0.00     0.084 A 
HETATM    4  C   UNK N   1      29.875  43.441  59.143  0.00  0.00     0.119 A 
HETATM    5  C   UNK N   1      31.281  43.562  59.361  0.00  0.00     0.136 A 
HETATM    6  C   UNK N   1      32.178  43.360  58.299  0.00  0.00     0.107 A 
HETATM    7  C   UNK N   1      31.690  43.059  57.020  0.00  0.00     0.078 A 
HETATM    8  C   UNK N   1      30.327  42.937  56.785  0.00  0.00     0.096 A 
HETATM    9  O   UNK N   1      29.931  42.643  55.551  0.00  0.00    -0.309 OA
HETATM   10  C   UNK N   1      28.660  42.454  55.220  0.00  0.00     0.090 A 
HETATM   11  C   UNK N   1      27.667  42.588  56.194  0.00  0.00     0.094 A 
ENDROOT
BRANCH  10  12
HETATM   12  C   UNK N   1      28.334  42.109  53.813  0.00  0.00    -0.002 A 
HETATM   13  C   UNK N   1      27.062  41.593  53.507  0.00  0.00     0.017 A 
HETATM   14  C   UNK N   1      26.735  41.248  52.194  0.00  0.00     0.037 A 
HETATM   15  C   UNK N   1      27.665  41.437  51.163  0.00  0.00     0.065 A 
HETATM   16  C   UNK N   1      28.926  41.967  51.455  0.00  0.00     0.037 A 
HETATM   17  C   UNK N   1      29.265  42.292  52.770  0.00  0.00     0.017 A 
BRANCH  15  18
HETATM   18  O   UNK N   1      27.359  41.115  49.892  0.00  0.00    -0.361 OA
HETATM   19  H   UNK N   1      26.452  40.908  49.626  0.00  0.00     0.217 HD
ENDBRANCH  15  18
ENDBRANCH  10  12
BRANCH   4  20
HETATM   20  O   UNK N   1      29.046  43.641  60.192  0.00  0.00    -0.357 OA
HETATM   21  H   UNK N   1      29.090  43.247  61.067  0.00  0.00     0.218 HD
ENDBRANCH   4  20
BRANCH   6  22
HETATM   22  O   UNK N   1      33.515  43.462  58.542  0.00  0.00    -0.353 OA
HETATM   23  C   UNK N   1      34.352  42.406  58.854  0.00  0.00     0.210 C 
ENDBRANCH   6  22
BRANCH   5  24
HETATM   24  O   UNK N   1      31.821  43.867  60.579  0.00  0.00    -0.351 OA
HETATM   25  C   UNK N   1      32.013  43.022  61.653  0.00  0.00     0.210 C 
ENDBRANCH   5  24
TORSDOF 5
ENDMDL
