MODEL 1
REMARK VINA RESULT:      -7.3      0.000      0.000
REMARK  5 active torsions:
REMARK  status: ('A' for Active; 'I' for Inactive)
REMARK    1  A    between atoms: C_8  and  O_10 
REMARK    2  A    between atoms: O_10  and  C_11 
REMARK    3  A    between atoms: C_11  and  C_12 
REMARK    4  A    between atoms: C_16  and  O_17 
REMARK    5  A    between atoms: O_17  and  C_18 
ROOT
HETATM    1  C   UNK N   1      40.649  47.019  47.642  0.00  0.00     0.047 C 
HETATM    2  C   UNK N   1      40.862  45.674  48.453  0.00  0.00    -0.030 C 
HETATM    3  C   UNK N   1      41.586  46.060  49.818  0.00  0.00     0.005 C 
HETATM    4  C   UNK N   1      41.648  44.926  50.928  0.00  0.00    -0.017 C 
HETATM    5  C   UNK N   1      40.208  44.342  51.112  0.00  0.00     0.140 C 
HETATM    6  C   UNK N   1      39.587  43.873  49.789  0.00  0.00     0.034 C 
HETATM    7  C   UNK N   1      39.482  45.041  48.802  0.00  0.00     0.013 C 
HETATM    8  C   UNK N   1      42.067  45.559  52.285  0.00  0.00     0.018 C 
HETATM    9  C   UNK N   1      42.683  43.800  50.649  0.00  0.00     0.018 C 
HETATM   10  C   UNK N   1      42.955  46.757  49.547  0.00  0.00     0.010 C 
HETATM   11  C   UNK N   1      42.777  48.013  48.689  0.00  0.00     0.034 C 
HETATM   12  C   UNK N   1      42.014  47.677  47.438  0.00  0.00    -0.082 C 
HETATM   13  C   UNK N   1      42.554  47.941  46.231  0.00  0.00     0.015 C 
HETATM   14  C   UNK N   1      41.666  44.676  47.560  0.00  0.00     0.016 C 
ENDROOT
BRANCH   1  15
HETATM   15  C   UNK N   1      39.804  46.868  46.351  0.00  0.00     0.185 C 
BRANCH  15  16
HETATM   16  O   UNK N   1      38.994  47.977  46.160  0.00  0.00    -0.350 OA
BRANCH  16  17
HETATM   17  C   UNK N   1      38.986  48.765  45.052  0.00  0.00     0.071 A 
HETATM   18  C   UNK N   1      38.298  48.313  43.921  0.00  0.00     0.038 A 
HETATM   19  C   UNK N   1      38.219  49.104  42.772  0.00  0.00     0.017 A 
HETATM   20  C   UNK N   1      38.843  50.357  42.741  0.00  0.00    -0.002 A 
HETATM   21  C   UNK N   1      39.566  50.811  43.865  0.00  0.00     0.092 A 
HETATM   22  C   UNK N   1      38.768  51.181  41.616  0.00  0.00     0.020 A 
HETATM   23  O   UNK N   1      40.170  51.998  43.839  0.00  0.00    -0.275 OA
HETATM   24  C   UNK N   1      39.637  50.018  45.013  0.00  0.00     0.075 A 
HETATM   25  C   UNK N   1      40.116  52.804  42.779  0.00  0.00     0.288 A 
HETATM   26  O   UNK N   1      40.683  53.879  42.809  0.00  0.00    -0.260 OA
HETATM   27  C   UNK N   1      39.408  52.418  41.634  0.00  0.00     0.083 A 
ENDBRANCH  16  17
ENDBRANCH  15  16
ENDBRANCH   1  15
BRANCH   5  28
HETATM   28  O   UNK N   1      40.228  43.267  51.987  0.00  0.00    -0.316 OA
BRANCH  28  29
HETATM   29  C   UNK N   1      39.608  43.223  53.193  0.00  0.00     0.255 C 
HETATM   30  O   UNK N   1      39.648  44.174  53.961  0.00  0.00    -0.266 OA
HETATM   31  C   UNK N   1      38.890  41.975  53.588  0.00  0.00     0.126 C 
ENDBRANCH  28  29
ENDBRANCH   5  28
TORSDOF 5
ENDMDL
MODEL 2
REMARK VINA RESULT:      -7.1     14.037     17.103
REMARK  5 active torsions:
REMARK  status: ('A' for Active; 'I' for Inactive)
REMARK    1  A    between atoms: C_8  and  O_10 
REMARK    2  A    between atoms: O_10  and  C_11 
REMARK    3  A    between atoms: C_11  and  C_12 
REMARK    4  A    between atoms: C_16  and  O_17 
REMARK    5  A    between atoms: O_17  and  C_18 
ROOT
HETATM    1  C   UNK N   1      35.583  45.781  62.557  0.00  0.00     0.047 C 
HETATM    2  C   UNK N   1      35.008  46.798  63.627  0.00  0.00    -0.030 C 
HETATM    3  C   UNK N   1      35.274  48.266  63.069  0.00  0.00     0.005 C 
HETATM    4  C   UNK N   1      34.533  49.451  63.823  0.00  0.00    -0.017 C 
HETATM    5  C   UNK N   1      33.018  49.079  63.948  0.00  0.00     0.140 C 
HETATM    6  C   UNK N   1      32.797  47.707  64.596  0.00  0.00     0.034 C 
HETATM    7  C   UNK N   1      33.469  46.606  63.766  0.00  0.00     0.013 C 
HETATM    8  C   UNK N   1      34.622  50.742  62.961  0.00  0.00     0.018 C 
HETATM    9  C   UNK N   1      35.139  49.822  65.205  0.00  0.00     0.018 C 
HETATM   10  C   UNK N   1      36.798  48.512  62.846  0.00  0.00     0.010 C 
HETATM   11  C   UNK N   1      37.390  47.482  61.879  0.00  0.00     0.034 C 
HETATM   12  C   UNK N   1      37.067  46.091  62.349  0.00  0.00    -0.082 C 
HETATM   13  C   UNK N   1      38.063  45.212  62.582  0.00  0.00     0.015 C 
HETATM   14  C   UNK N   1      35.682  46.503  65.005  0.00  0.00     0.016 C 
ENDROOT
BRANCH   1  15
HETATM   15  C   UNK N   1      35.268  44.291  62.845  0.00  0.00     0.185 C 
BRANCH  15  16
HETATM   16  O   UNK N   1      35.201  43.565  61.666  0.00  0.00    -0.350 OA
BRANCH  16  17
HETATM   17  C   UNK N   1      34.088  43.401  60.904  0.00  0.00     0.071 A 
HETATM   18  C   UNK N   1      32.841  43.397  61.541  0.00  0.00     0.038 A 
HETATM   19  C   UNK N   1      31.663  43.279  60.798  0.00  0.00     0.017 A 
HETATM   20  C   UNK N   1      31.723  43.151  59.406  0.00  0.00    -0.002 A 
HETATM   21  C   UNK N   1      32.975  43.122  58.755  0.00  0.00     0.092 A 
HETATM   22  C   UNK N   1      30.564  43.050  58.632  0.00  0.00     0.020 A 
HETATM   23  O   UNK N   1      33.040  42.991  57.431  0.00  0.00    -0.275 OA
HETATM   24  C   UNK N   1      34.150  43.245  59.502  0.00  0.00     0.075 A 
HETATM   25  C   UNK N   1      31.951  42.891  56.669  0.00  0.00     0.288 A 
HETATM   26  O   UNK N   1      32.067  42.775  55.464  0.00  0.00    -0.260 OA
HETATM   27  C   UNK N   1      30.677  42.921  57.250  0.00  0.00     0.083 A 
ENDBRANCH  16  17
ENDBRANCH  15  16
ENDBRANCH   1  15
BRANCH   5  28
HETATM   28  O   UNK N   1      32.345  50.028  64.702  0.00  0.00    -0.316 OA
BRANCH  28  29
HETATM   29  C   UNK N   1      31.226  50.691  64.316  0.00  0.00     0.255 C 
HETATM   30  O   UNK N   1      30.873  51.718  64.879  0.00  0.00    -0.266 OA
HETATM   31  C   UNK N   1      30.405  50.132  63.202  0.00  0.00     0.126 C 
ENDBRANCH  28  29
ENDBRANCH   5  28
TORSDOF 5
ENDMDL
MODEL 3
REMARK VINA RESULT:      -7.0     10.685     16.144
REMARK  5 active torsions:
REMARK  status: ('A' for Active; 'I' for Inactive)
REMARK    1  A    between atoms: C_8  and  O_10 
REMARK    2  A    between atoms: O_10  and  C_11 
REMARK    3  A    between atoms: C_11  and  C_12 
REMARK    4  A    between atoms: C_16  and  O_17 
REMARK    5  A    between atoms: O_17  and  C_18 
ROOT
HETATM    1  C   UNK N   1      29.210  55.505  40.674  0.00  0.00     0.047 C 
HETATM    2  C   UNK N   1      28.030  54.640  40.067  0.00  0.00    -0.030 C 
HETATM    3  C   UNK N   1      28.408  54.329  38.551  0.00  0.00     0.005 C 
HETATM    4  C   UNK N   1      27.522  53.235  37.814  0.00  0.00    -0.017 C 
HETATM    5  C   UNK N   1      27.450  51.967  38.728  0.00  0.00     0.140 C 
HETATM    6  C   UNK N   1      26.971  52.289  40.150  0.00  0.00     0.034 C 
HETATM    7  C   UNK N   1      27.922  53.283  40.825  0.00  0.00     0.013 C 
HETATM    8  C   UNK N   1      28.224  52.813  36.493  0.00  0.00     0.018 C 
HETATM    9  C   UNK N   1      26.103  53.717  37.404  0.00  0.00     0.018 C 
HETATM   10  C   UNK N   1      28.592  55.647  37.739  0.00  0.00     0.010 C 
HETATM   11  C   UNK N   1      29.672  56.536  38.364  0.00  0.00     0.034 C 
HETATM   12  C   UNK N   1      29.372  56.763  39.819  0.00  0.00    -0.082 C 
HETATM   13  C   UNK N   1      29.240  58.019  40.290  0.00  0.00     0.015 C 
HETATM   14  C   UNK N   1      26.693  55.427  40.246  0.00  0.00     0.016 C 
ENDROOT
BRANCH   1  15
HETATM   15  C   UNK N   1      29.102  55.767  42.198  0.00  0.00     0.185 C 
BRANCH  15  16
HETATM   16  O   UNK N   1      30.353  56.011  42.745  0.00  0.00    -0.350 OA
BRANCH  16  17
HETATM   17  C   UNK N   1      31.202  55.062  43.220  0.00  0.00     0.071 A 
HETATM   18  C   UNK N   1      32.152  55.440  44.177  0.00  0.00     0.038 A 
HETATM   19  C   UNK N   1      33.018  54.494  44.732  0.00  0.00     0.017 A 
HETATM   20  C   UNK N   1      32.950  53.157  44.323  0.00  0.00    -0.002 A 
HETATM   21  C   UNK N   1      32.017  52.769  43.337  0.00  0.00     0.092 A 
HETATM   22  C   UNK N   1      33.788  52.183  44.872  0.00  0.00     0.020 A 
HETATM   23  O   UNK N   1      31.952  51.501  42.937  0.00  0.00    -0.275 OA
HETATM   24  C   UNK N   1      31.150  53.718  42.789  0.00  0.00     0.075 A 
HETATM   25  C   UNK N   1      32.740  50.552  43.442  0.00  0.00     0.288 A 
HETATM   26  O   UNK N   1      32.637  49.407  43.043  0.00  0.00    -0.260 OA
HETATM   27  C   UNK N   1      33.681  50.867  44.430  0.00  0.00     0.083 A 
ENDBRANCH  16  17
ENDBRANCH  15  16
ENDBRANCH   1  15
BRANCH   5  28
HETATM   28  O   UNK N   1      26.593  51.024  38.184  0.00  0.00    -0.316 OA
BRANCH  28  29
HETATM   29  C   UNK N   1      25.700  50.276  38.881  0.00  0.00     0.255 C 
HETATM   30  O   UNK N   1      26.065  49.330  39.565  0.00  0.00    -0.266 OA
HETATM   31  C   UNK N   1      24.248  50.608  38.782  0.00  0.00     0.126 C 
ENDBRANCH  28  29
ENDBRANCH   5  28
TORSDOF 5
ENDMDL
MODEL 4
REMARK VINA RESULT:      -6.7     13.967     17.772
REMARK  5 active torsions:
REMARK  status: ('A' for Active; 'I' for Inactive)
REMARK    1  A    between atoms: C_8  and  O_10 
REMARK    2  A    between atoms: O_10  and  C_11 
REMARK    3  A    between atoms: C_11  and  C_12 
REMARK    4  A    between atoms: C_16  and  O_17 
REMARK    5  A    between atoms: O_17  and  C_18 
ROOT
HETATM    1  C   UNK N   1      30.651  47.271  62.747  0.00  0.00     0.047 C 
HETATM    2  C   UNK N   1      30.261  46.079  61.779  0.00  0.00    -0.030 C 
HETATM    3  C   UNK N   1      30.201  46.675  60.303  0.00  0.00     0.005 C 
HETATM    4  C   UNK N   1      30.115  45.619  59.119  0.00  0.00    -0.017 C 
HETATM    5  C   UNK N   1      31.240  44.552  59.333  0.00  0.00     0.140 C 
HETATM    6  C   UNK N   1      31.194  43.916  60.728  0.00  0.00     0.034 C 
HETATM    7  C   UNK N   1      31.370  44.985  61.812  0.00  0.00     0.013 C 
HETATM    8  C   UNK N   1      30.407  46.335  57.771  0.00  0.00     0.018 C 
HETATM    9  C   UNK N   1      28.724  44.946  58.949  0.00  0.00     0.018 C 
HETATM   10  C   UNK N   1      29.150  47.823  60.205  0.00  0.00     0.010 C 
HETATM   11  C   UNK N   1      29.463  48.946  61.198  0.00  0.00     0.034 C 
HETATM   12  C   UNK N   1      29.611  48.381  62.584  0.00  0.00    -0.082 C 
HETATM   13  C   UNK N   1      28.834  48.843  63.584  0.00  0.00     0.015 C 
HETATM   14  C   UNK N   1      28.918  45.454  62.273  0.00  0.00     0.016 C 
ENDROOT
BRANCH   1  15
HETATM   15  C   UNK N   1      30.922  46.850  64.214  0.00  0.00     0.185 C 
BRANCH  15  16
HETATM   16  O   UNK N   1      32.006  47.542  64.732  0.00  0.00    -0.350 OA
BRANCH  16  17
HETATM   17  C   UNK N   1      33.228  47.645  64.145  0.00  0.00     0.071 A 
HETATM   18  C   UNK N   1      33.724  48.922  63.860  0.00  0.00     0.038 A 
HETATM   19  C   UNK N   1      34.994  49.085  63.300  0.00  0.00     0.017 A 
HETATM   20  C   UNK N   1      35.779  47.964  63.008  0.00  0.00    -0.002 A 
HETATM   21  C   UNK N   1      35.279  46.668  63.263  0.00  0.00     0.092 A 
HETATM   22  C   UNK N   1      37.060  48.092  62.466  0.00  0.00     0.020 A 
HETATM   23  O   UNK N   1      36.016  45.597  62.979  0.00  0.00    -0.275 OA
HETATM   24  C   UNK N   1      34.010  46.512  63.827  0.00  0.00     0.075 A 
HETATM   25  C   UNK N   1      37.240  45.689  62.461  0.00  0.00     0.288 A 
HETATM   26  O   UNK N   1      37.873  44.678  62.222  0.00  0.00    -0.260 OA
HETATM   27  C   UNK N   1      37.801  46.945  62.191  0.00  0.00     0.083 A 
ENDBRANCH  16  17
ENDBRANCH  15  16
ENDBRANCH   1  15
BRANCH   5  28
HETATM   28  O   UNK N   1      31.135  43.541  58.391  0.00  0.00    -0.316 OA
BRANCH  28  29
HETATM   29  C   UNK N   1      32.123  43.143  57.550  0.00  0.00     0.255 C 
HETATM   30  O   UNK N   1      33.269  42.987  57.948  0.00  0.00    -0.266 OA
HETATM   31  C   UNK N   1      31.797  42.920  56.110  0.00  0.00     0.126 C 
ENDBRANCH  28  29
ENDBRANCH   5  28
TORSDOF 5
ENDMDL
MODEL 5
REMARK VINA RESULT:      -6.3     14.049     16.450
REMARK  5 active torsions:
REMARK  status: ('A' for Active; 'I' for Inactive)
REMARK    1  A    between atoms: C_8  and  O_10 
REMARK    2  A    between atoms: O_10  and  C_11 
REMARK    3  A    between atoms: C_11  and  C_12 
REMARK    4  A    between atoms: C_16  and  O_17 
REMARK    5  A    between atoms: O_17  and  C_18 
ROOT
HETATM    1  C   UNK N   1      29.514  42.330  58.236  0.00  0.00     0.047 C 
HETATM    2  C   UNK N   1      29.182  41.650  56.844  0.00  0.00    -0.030 C 
HETATM    3  C   UNK N   1      27.705  42.094  56.445  0.00  0.00     0.005 C 
HETATM    4  C   UNK N   1      27.252  41.776  54.955  0.00  0.00    -0.017 C 
HETATM    5  C   UNK N   1      28.362  42.300  53.984  0.00  0.00     0.140 C 
HETATM    6  C   UNK N   1      29.755  41.759  54.331  0.00  0.00     0.034 C 
HETATM    7  C   UNK N   1      30.157  42.178  55.750  0.00  0.00     0.013 C 
HETATM    8  C   UNK N   1      25.950  42.564  54.637  0.00  0.00     0.018 C 
HETATM    9  C   UNK N   1      26.922  40.283  54.681  0.00  0.00     0.018 C 
HETATM   10  C   UNK N   1      26.676  41.650  57.528  0.00  0.00     0.010 C 
HETATM   11  C   UNK N   1      27.031  42.229  58.901  0.00  0.00     0.034 C 
HETATM   12  C   UNK N   1      28.455  41.891  59.248  0.00  0.00    -0.082 C 
HETATM   13  C   UNK N   1      28.728  41.221  60.386  0.00  0.00     0.015 C 
HETATM   14  C   UNK N   1      29.371  40.106  56.987  0.00  0.00     0.016 C 
ENDROOT
BRANCH   1  15
HETATM   15  C   UNK N   1      30.978  42.149  58.711  0.00  0.00     0.185 C 
BRANCH  15  16
HETATM   16  O   UNK N   1      31.668  43.350  58.646  0.00  0.00    -0.350 OA
BRANCH  16  17
HETATM   17  C   UNK N   1      31.118  44.584  58.800  0.00  0.00     0.071 A 
HETATM   18  C   UNK N   1      30.573  44.918  60.045  0.00  0.00     0.038 A 
HETATM   19  C   UNK N   1      30.037  46.189  60.270  0.00  0.00     0.017 A 
HETATM   20  C   UNK N   1      30.031  47.138  59.241  0.00  0.00    -0.002 A 
HETATM   21  C   UNK N   1      30.550  46.803  57.971  0.00  0.00     0.092 A 
HETATM   22  C   UNK N   1      29.521  48.423  59.437  0.00  0.00     0.020 A 
HETATM   23  O   UNK N   1      30.540  47.698  56.985  0.00  0.00    -0.275 OA
HETATM   24  C   UNK N   1      31.089  45.532  57.754  0.00  0.00     0.075 A 
HETATM   25  C   UNK N   1      30.058  48.930  57.144  0.00  0.00     0.288 A 
HETATM   26  O   UNK N   1      30.075  49.710  56.211  0.00  0.00    -0.260 OA
HETATM   27  C   UNK N   1      29.536  49.331  58.381  0.00  0.00     0.083 A 
ENDBRANCH  16  17
ENDBRANCH  15  16
ENDBRANCH   1  15
BRANCH   5  28
HETATM   28  O   UNK N   1      28.071  41.945  52.677  0.00  0.00    -0.316 OA
BRANCH  28  29
HETATM   29  C   UNK N   1      27.985  42.802  51.628  0.00  0.00     0.255 C 
HETATM   30  O   UNK N   1      28.884  43.594  51.383  0.00  0.00    -0.266 OA
HETATM   31  C   UNK N   1      26.754  42.786  50.783  0.00  0.00     0.126 C 
ENDBRANCH  28  29
ENDBRANCH   5  28
TORSDOF 5
ENDMDL
MODEL 6
REMARK VINA RESULT:      -6.2     14.000     16.390
REMARK  5 active torsions:
REMARK  status: ('A' for Active; 'I' for Inactive)
REMARK    1  A    between atoms: C_8  and  O_10 
REMARK    2  A    between atoms: O_10  and  C_11 
REMARK    3  A    between atoms: C_11  and  C_12 
REMARK    4  A    between atoms: C_16  and  O_17 
REMARK    5  A    between atoms: O_17  and  C_18 
ROOT
HETATM    1  C   UNK N   1      29.828  43.530  57.969  0.00  0.00     0.047 C 
HETATM    2  C   UNK N   1      29.016  44.725  58.619  0.00  0.00    -0.030 C 
HETATM    3  C   UNK N   1      29.432  46.052  57.842  0.00  0.00     0.005 C 
HETATM    4  C   UNK N   1      28.540  47.338  58.116  0.00  0.00    -0.017 C 
HETATM    5  C   UNK N   1      27.038  46.938  57.939  0.00  0.00     0.140 C 
HETATM    6  C   UNK N   1      26.644  45.725  58.792  0.00  0.00     0.034 C 
HETATM    7  C   UNK N   1      27.488  44.503  58.410  0.00  0.00     0.013 C 
HETATM    8  C   UNK N   1      28.860  48.420  57.046  0.00  0.00     0.018 C 
HETATM    9  C   UNK N   1      28.785  48.017  59.492  0.00  0.00     0.018 C 
HETATM   10  C   UNK N   1      30.966  46.309  57.956  0.00  0.00     0.010 C 
HETATM   11  C   UNK N   1      31.768  45.123  57.411  0.00  0.00     0.034 C 
HETATM   12  C   UNK N   1      31.320  43.851  58.074  0.00  0.00    -0.082 C 
HETATM   13  C   UNK N   1      32.214  43.083  58.729  0.00  0.00     0.015 C 
HETATM   14  C   UNK N   1      29.318  44.757  60.151  0.00  0.00     0.016 C 
ENDROOT
BRANCH   1  15
HETATM   15  C   UNK N   1      29.431  42.123  58.484  0.00  0.00     0.185 C 
BRANCH  15  16
HETATM   16  O   UNK N   1      29.166  41.268  57.425  0.00  0.00    -0.350 OA
BRANCH  16  17
HETATM   17  C   UNK N   1      29.113  41.629  56.115  0.00  0.00     0.071 A 
HETATM   18  C   UNK N   1      30.230  41.376  55.311  0.00  0.00     0.038 A 
HETATM   19  C   UNK N   1      30.210  41.685  53.948  0.00  0.00     0.017 A 
HETATM   20  C   UNK N   1      29.071  42.264  53.378  0.00  0.00    -0.002 A 
HETATM   21  C   UNK N   1      27.949  42.553  54.185  0.00  0.00     0.092 A 
HETATM   22  C   UNK N   1      29.011  42.568  52.016  0.00  0.00     0.020 A 
HETATM   23  O   UNK N   1      26.865  43.113  53.651  0.00  0.00    -0.275 OA
HETATM   24  C   UNK N   1      27.973  42.237  55.546  0.00  0.00     0.075 A 
HETATM   25  C   UNK N   1      26.781  43.414  52.356  0.00  0.00     0.288 A 
HETATM   26  O   UNK N   1      25.767  43.922  51.919  0.00  0.00    -0.260 OA
HETATM   27  C   UNK N   1      27.855  43.146  51.497  0.00  0.00     0.083 A 
ENDBRANCH  16  17
ENDBRANCH  15  16
ENDBRANCH   1  15
BRANCH   5  28
HETATM   28  O   UNK N   1      26.210  47.995  58.280  0.00  0.00    -0.316 OA
BRANCH  28  29
HETATM   29  C   UNK N   1      25.238  48.521  57.492  0.00  0.00     0.255 C 
HETATM   30  O   UNK N   1      24.500  47.802  56.833  0.00  0.00    -0.266 OA
HETATM   31  C   UNK N   1      25.095  50.005  57.418  0.00  0.00     0.126 C 
ENDBRANCH  28  29
ENDBRANCH   5  28
TORSDOF 5
ENDMDL
MODEL 7
REMARK VINA RESULT:      -5.8      1.837      9.243
REMARK  5 active torsions:
REMARK  status: ('A' for Active; 'I' for Inactive)
REMARK    1  A    between atoms: C_8  and  O_10 
REMARK    2  A    between atoms: O_10  and  C_11 
REMARK    3  A    between atoms: C_11  and  C_12 
REMARK    4  A    between atoms: C_16  and  O_17 
REMARK    5  A    between atoms: O_17  and  C_18 
ROOT
HETATM    1  C   UNK N   1      42.105  47.043  46.278  0.00  0.00     0.047 C 
HETATM    2  C   UNK N   1      40.760  47.870  46.146  0.00  0.00    -0.030 C 
HETATM    3  C   UNK N   1      41.049  49.079  45.150  0.00  0.00     0.005 C 
HETATM    4  C   UNK N   1      39.781  49.883  44.631  0.00  0.00    -0.017 C 
HETATM    5  C   UNK N   1      38.733  48.852  44.097  0.00  0.00     0.140 C 
HETATM    6  C   UNK N   1      38.393  47.767  45.127  0.00  0.00     0.034 C 
HETATM    7  C   UNK N   1      39.650  46.979  45.513  0.00  0.00     0.013 C 
HETATM    8  C   UNK N   1      40.199  50.781  43.433  0.00  0.00     0.018 C 
HETATM    9  C   UNK N   1      39.147  50.842  45.678  0.00  0.00     0.018 C 
HETATM   10  C   UNK N   1      42.197  49.986  45.690  0.00  0.00     0.010 C 
HETATM   11  C   UNK N   1      43.483  49.183  45.906  0.00  0.00     0.034 C 
HETATM   12  C   UNK N   1      43.202  47.987  46.773  0.00  0.00    -0.082 C 
HETATM   13  C   UNK N   1      43.888  47.813  47.921  0.00  0.00     0.015 C 
HETATM   14  C   UNK N   1      40.305  48.310  47.574  0.00  0.00     0.016 C 
ENDROOT
BRANCH   1  15
HETATM   15  C   UNK N   1      41.977  45.723  47.080  0.00  0.00     0.185 C 
BRANCH  15  16
HETATM   16  O   UNK N   1      41.010  45.840  48.067  0.00  0.00    -0.350 OA
BRANCH  16  17
HETATM   17  C   UNK N   1      41.161  45.461  49.364  0.00  0.00     0.071 A 
HETATM   18  C   UNK N   1      42.190  46.043  50.112  0.00  0.00     0.038 A 
HETATM   19  C   UNK N   1      42.358  45.724  51.462  0.00  0.00     0.017 A 
HETATM   20  C   UNK N   1      41.501  44.804  52.075  0.00  0.00    -0.002 A 
HETATM   21  C   UNK N   1      40.477  44.186  51.325  0.00  0.00     0.092 A 
HETATM   22  C   UNK N   1      41.629  44.476  53.427  0.00  0.00     0.020 A 
HETATM   23  O   UNK N   1      39.663  43.303  51.899  0.00  0.00    -0.275 OA
HETATM   24  C   UNK N   1      40.311  44.513  49.976  0.00  0.00     0.075 A 
HETATM   25  C   UNK N   1      39.764  42.971  53.186  0.00  0.00     0.288 A 
HETATM   26  O   UNK N   1      38.992  42.160  53.662  0.00  0.00    -0.260 OA
HETATM   27  C   UNK N   1      40.752  43.553  53.991  0.00  0.00     0.083 A 
ENDBRANCH  16  17
ENDBRANCH  15  16
ENDBRANCH   1  15
BRANCH   5  28
HETATM   28  O   UNK N   1      37.558  49.494  43.739  0.00  0.00    -0.316 OA
BRANCH  28  29
HETATM   29  C   UNK N   1      36.827  49.235  42.626  0.00  0.00     0.255 C 
HETATM   30  O   UNK N   1      37.258  49.495  41.511  0.00  0.00    -0.266 OA
HETATM   31  C   UNK N   1      35.463  48.647  42.780  0.00  0.00     0.126 C 
ENDBRANCH  28  29
ENDBRANCH   5  28
TORSDOF 5
ENDMDL
MODEL 8
REMARK VINA RESULT:      -5.8     14.154     15.536
REMARK  5 active torsions:
REMARK  status: ('A' for Active; 'I' for Inactive)
REMARK    1  A    between atoms: C_8  and  O_10 
REMARK    2  A    between atoms: O_10  and  C_11 
REMARK    3  A    between atoms: C_11  and  C_12 
REMARK    4  A    between atoms: C_16  and  O_17 
REMARK    5  A    between atoms: O_17  and  C_18 
ROOT
HETATM    1  C   UNK N   1      47.423  53.984  60.087  0.00  0.00     0.047 C 
HETATM    2  C   UNK N   1      48.263  52.743  60.602  0.00  0.00    -0.030 C 
HETATM    3  C   UNK N   1      47.257  51.514  60.723  0.00  0.00     0.005 C 
HETATM    4  C   UNK N   1      47.914  50.085  60.943  0.00  0.00    -0.017 C 
HETATM    5  C   UNK N   1      49.034  49.891  59.868  0.00  0.00     0.140 C 
HETATM    6  C   UNK N   1      50.051  51.039  59.860  0.00  0.00     0.034 C 
HETATM    7  C   UNK N   1      49.355  52.371  59.557  0.00  0.00     0.013 C 
HETATM    8  C   UNK N   1      46.843  48.985  60.698  0.00  0.00     0.018 C 
HETATM    9  C   UNK N   1      48.458  49.834  62.377  0.00  0.00     0.018 C 
HETATM   10  C   UNK N   1      46.096  51.837  61.713  0.00  0.00     0.010 C 
HETATM   11  C   UNK N   1      45.326  53.087  61.276  0.00  0.00     0.034 C 
HETATM   12  C   UNK N   1      46.279  54.232  61.072  0.00  0.00    -0.082 C 
HETATM   13  C   UNK N   1      46.106  55.380  61.756  0.00  0.00     0.015 C 
HETATM   14  C   UNK N   1      48.959  53.137  61.944  0.00  0.00     0.016 C 
ENDROOT
BRANCH   1  15
HETATM   15  C   UNK N   1      48.267  55.239  59.746  0.00  0.00     0.185 C 
BRANCH  15  16
HETATM   16  O   UNK N   1      47.678  55.964  58.721  0.00  0.00    -0.350 OA
BRANCH  16  17
HETATM   17  C   UNK N   1      48.169  56.084  57.459  0.00  0.00     0.071 A 
HETATM   18  C   UNK N   1      47.785  57.195  56.699  0.00  0.00     0.038 A 
HETATM   19  C   UNK N   1      48.297  57.390  55.414  0.00  0.00     0.017 A 
HETATM   20  C   UNK N   1      49.193  56.462  54.870  0.00  0.00    -0.002 A 
HETATM   21  C   UNK N   1      49.564  55.321  55.613  0.00  0.00     0.092 A 
HETATM   22  C   UNK N   1      49.738  56.636  53.595  0.00  0.00     0.020 A 
HETATM   23  O   UNK N   1      50.409  54.430  55.098  0.00  0.00    -0.275 OA
HETATM   24  C   UNK N   1      49.053  55.134  56.901  0.00  0.00     0.075 A 
HETATM   25  C   UNK N   1      50.942  54.570  53.885  0.00  0.00     0.288 A 
HETATM   26  O   UNK N   1      51.711  53.727  53.463  0.00  0.00    -0.260 OA
HETATM   27  C   UNK N   1      50.623  55.684  53.097  0.00  0.00     0.083 A 
ENDBRANCH  16  17
ENDBRANCH  15  16
ENDBRANCH   1  15
BRANCH   5  28
HETATM   28  O   UNK N   1      49.719  48.706  60.088  0.00  0.00    -0.316 OA
BRANCH  28  29
HETATM   29  C   UNK N   1      50.035  47.791  59.138  0.00  0.00     0.255 C 
HETATM   30  O   UNK N   1      49.206  46.987  58.733  0.00  0.00    -0.266 OA
HETATM   31  C   UNK N   1      51.429  47.758  58.604  0.00  0.00     0.126 C 
ENDBRANCH  28  29
ENDBRANCH   5  28
TORSDOF 5
ENDMDL
MODEL 9
REMARK VINA RESULT:      -5.7     14.049     17.250
REMARK  5 active torsions:
REMARK  status: ('A' for Active; 'I' for Inactive)
REMARK    1  A    between atoms: C_8  and  O_10 
REMARK    2  A    between atoms: O_10  and  C_11 
REMARK    3  A    between atoms: C_11  and  C_12 
REMARK    4  A    between atoms: C_16  and  O_17 
REMARK    5  A    between atoms: O_17  and  C_18 
ROOT
HETATM    1  C   UNK N   1      31.320  42.622  58.344  0.00  0.00     0.047 C 
HETATM    2  C   UNK N   1      29.959  41.901  57.971  0.00  0.00    -0.030 C 
HETATM    3  C   UNK N   1      30.186  41.162  56.578  0.00  0.00     0.005 C 
HETATM    4  C   UNK N   1      29.062  40.131  56.136  0.00  0.00    -0.017 C 
HETATM    5  C   UNK N   1      28.785  39.165  57.335  0.00  0.00     0.140 C 
HETATM    6  C   UNK N   1      28.456  39.912  58.633  0.00  0.00     0.034 C 
HETATM    7  C   UNK N   1      29.622  40.820  59.041  0.00  0.00     0.013 C 
HETATM    8  C   UNK N   1      29.594  39.266  54.959  0.00  0.00     0.018 C 
HETATM    9  C   UNK N   1      27.748  40.784  55.622  0.00  0.00     0.018 C 
HETATM   10  C   UNK N   1      30.589  42.177  55.465  0.00  0.00     0.010 C 
HETATM   11  C   UNK N   1      31.856  42.947  55.849  0.00  0.00     0.034 C 
HETATM   12  C   UNK N   1      31.685  43.575  57.204  0.00  0.00    -0.082 C 
HETATM   13  C   UNK N   1      31.834  44.908  57.351  0.00  0.00     0.015 C 
HETATM   14  C   UNK N   1      28.819  42.968  57.952  0.00  0.00     0.016 C 
ENDROOT
BRANCH   1  15
HETATM   15  C   UNK N   1      31.347  43.261  59.756  0.00  0.00     0.185 C 
BRANCH  15  16
HETATM   16  O   UNK N   1      32.311  42.658  60.550  0.00  0.00    -0.350 OA
BRANCH  16  17
HETATM   17  C   UNK N   1      33.146  43.307  61.403  0.00  0.00     0.071 A 
HETATM   18  C   UNK N   1      32.645  43.708  62.648  0.00  0.00     0.038 A 
HETATM   19  C   UNK N   1      33.475  44.336  63.580  0.00  0.00     0.017 A 
HETATM   20  C   UNK N   1      34.817  44.581  63.269  0.00  0.00    -0.002 A 
HETATM   21  C   UNK N   1      35.327  44.209  62.006  0.00  0.00     0.092 A 
HETATM   22  C   UNK N   1      35.678  45.190  64.185  0.00  0.00     0.020 A 
HETATM   23  O   UNK N   1      36.601  44.447  61.700  0.00  0.00    -0.275 OA
HETATM   24  C   UNK N   1      34.494  43.576  61.080  0.00  0.00     0.075 A 
HETATM   25  C   UNK N   1      37.444  45.027  62.554  0.00  0.00     0.288 A 
HETATM   26  O   UNK N   1      38.599  45.220  62.225  0.00  0.00    -0.260 OA
HETATM   27  C   UNK N   1      37.006  45.414  63.827  0.00  0.00     0.083 A 
ENDBRANCH  16  17
ENDBRANCH  15  16
ENDBRANCH   1  15
BRANCH   5  28
HETATM   28  O   UNK N   1      27.728  38.317  57.042  0.00  0.00    -0.316 OA
BRANCH  28  29
HETATM   29  C   UNK N   1      27.781  36.961  57.049  0.00  0.00     0.255 C 
HETATM   30  O   UNK N   1      26.892  36.291  56.542  0.00  0.00    -0.266 OA
HETATM   31  C   UNK N   1      28.936  36.288  57.713  0.00  0.00     0.126 C 
ENDBRANCH  28  29
ENDBRANCH   5  28
TORSDOF 5
ENDMDL
