MODEL 1
REMARK VINA RESULT:      -7.7      0.000      0.000
REMARK  4 active torsions:
REMARK  status: ('A' for Active; 'I' for Inactive)
REMARK    1  A    between atoms: C_8  and  O_10 
REMARK    2  A    between atoms: O_10  and  C_11 
REMARK    3  A    between atoms: C_11  and  C_12 
REMARK    4  A    between atoms: C_16  and  O_17 
ROOT
HETATM    1  C   UNK N   1      40.693  46.025  48.461  0.00  0.00     0.047 C 
HETATM    2  C   UNK N   1      40.831  44.785  49.441  0.00  0.00    -0.030 C 
HETATM    3  C   UNK N   1      41.432  45.337  50.807  0.00  0.00     0.005 C 
HETATM    4  C   UNK N   1      41.399  44.341  52.045  0.00  0.00    -0.017 C 
HETATM    5  C   UNK N   1      39.955  43.750  52.174  0.00  0.00     0.126 C 
HETATM    6  C   UNK N   1      39.452  43.128  50.859  0.00  0.00     0.033 C 
HETATM    7  C   UNK N   1      39.428  44.180  49.740  0.00  0.00     0.013 C 
HETATM    8  C   UNK N   1      42.460  43.206  51.992  0.00  0.00     0.018 C 
HETATM    9  C   UNK N   1      41.690  45.138  53.348  0.00  0.00     0.018 C 
HETATM   10  C   UNK N   1      42.820  46.010  50.573  0.00  0.00     0.010 C 
HETATM   11  C   UNK N   1      42.727  47.149  49.552  0.00  0.00     0.034 C 
HETATM   12  C   UNK N   1      42.075  46.655  48.291  0.00  0.00    -0.082 C 
HETATM   13  C   UNK N   1      42.716  46.768  47.110  0.00  0.00     0.015 C 
HETATM   14  C   UNK N   1      41.712  43.696  48.747  0.00  0.00     0.016 C 
ENDROOT
BRANCH   1  15
HETATM   15  C   UNK N   1      39.949  45.715  47.141  0.00  0.00     0.185 C 
BRANCH  15  16
HETATM   16  O   UNK N   1      39.014  46.693  46.855  0.00  0.00    -0.350 OA
BRANCH  16  17
HETATM   17  C   UNK N   1      39.255  47.743  46.025  0.00  0.00     0.071 A 
HETATM   18  C   UNK N   1      40.187  48.717  46.413  0.00  0.00     0.038 A 
HETATM   19  C   UNK N   1      40.459  49.810  45.580  0.00  0.00     0.017 A 
HETATM   20  C   UNK N   1      39.797  49.937  44.352  0.00  0.00    -0.002 A 
HETATM   21  C   UNK N   1      38.859  48.961  43.955  0.00  0.00     0.092 A 
HETATM   22  C   UNK N   1      40.039  51.015  43.496  0.00  0.00     0.020 A 
HETATM   23  O   UNK N   1      38.225  49.070  42.792  0.00  0.00    -0.275 OA
HETATM   24  C   UNK N   1      38.594  47.877  44.785  0.00  0.00     0.075 A 
HETATM   25  C   UNK N   1      38.434  50.085  41.956  0.00  0.00     0.288 A 
HETATM   26  O   UNK N   1      37.825  50.136  40.905  0.00  0.00    -0.260 OA
HETATM   27  C   UNK N   1      39.350  51.091  42.286  0.00  0.00     0.083 A 
ENDBRANCH  16  17
ENDBRANCH  15  16
ENDBRANCH   1  15
BRANCH   5  28
HETATM   28  O   UNK N   1      39.913  42.793  53.206  0.00  0.00    -0.395 OA
HETATM   29  H   UNK N   1      40.187  41.923  52.814  0.00  0.00     0.210 HD
ENDBRANCH   5  28
TORSDOF 4
ENDMDL
MODEL 2
REMARK VINA RESULT:      -7.4     13.559     16.314
REMARK  4 active torsions:
REMARK  status: ('A' for Active; 'I' for Inactive)
REMARK    1  A    between atoms: C_8  and  O_10 
REMARK    2  A    between atoms: O_10  and  C_11 
REMARK    3  A    between atoms: C_11  and  C_12 
REMARK    4  A    between atoms: C_16  and  O_17 
ROOT
HETATM    1  C   UNK N   1      35.406  45.771  62.601  0.00  0.00     0.047 C 
HETATM    2  C   UNK N   1      34.900  46.822  63.676  0.00  0.00    -0.030 C 
HETATM    3  C   UNK N   1      35.165  48.269  63.070  0.00  0.00     0.005 C 
HETATM    4  C   UNK N   1      34.486  49.488  63.832  0.00  0.00    -0.017 C 
HETATM    5  C   UNK N   1      32.973  49.156  64.058  0.00  0.00     0.126 C 
HETATM    6  C   UNK N   1      32.763  47.795  64.745  0.00  0.00     0.033 C 
HETATM    7  C   UNK N   1      33.368  46.666  63.898  0.00  0.00     0.013 C 
HETATM    8  C   UNK N   1      35.174  49.880  65.169  0.00  0.00     0.018 C 
HETATM    9  C   UNK N   1      34.552  50.753  62.930  0.00  0.00     0.018 C 
HETATM   10  C   UNK N   1      36.682  48.478  62.769  0.00  0.00     0.010 C 
HETATM   11  C   UNK N   1      37.215  47.410  61.808  0.00  0.00     0.034 C 
HETATM   12  C   UNK N   1      36.886  46.040  62.330  0.00  0.00    -0.082 C 
HETATM   13  C   UNK N   1      37.870  45.144  62.545  0.00  0.00     0.015 C 
HETATM   14  C   UNK N   1      35.637  46.549  65.027  0.00  0.00     0.016 C 
ENDROOT
BRANCH   1  15
HETATM   15  C   UNK N   1      35.059  44.301  62.934  0.00  0.00     0.185 C 
BRANCH  15  16
HETATM   16  O   UNK N   1      35.012  43.528  61.789  0.00  0.00    -0.350 OA
BRANCH  16  17
HETATM   17  C   UNK N   1      33.915  43.430  60.992  0.00  0.00     0.071 A 
HETATM   18  C   UNK N   1      32.641  43.497  61.575  0.00  0.00     0.038 A 
HETATM   19  C   UNK N   1      31.492  43.403  60.782  0.00  0.00     0.017 A 
HETATM   20  C   UNK N   1      31.609  43.238  59.395  0.00  0.00    -0.002 A 
HETATM   21  C   UNK N   1      32.886  43.171  58.801  0.00  0.00     0.092 A 
HETATM   22  C   UNK N   1      30.485  43.137  58.570  0.00  0.00     0.020 A 
HETATM   23  O   UNK N   1      33.011  43.015  57.486  0.00  0.00    -0.275 OA
HETATM   24  C   UNK N   1      34.025  43.267  59.594  0.00  0.00     0.075 A 
HETATM   25  C   UNK N   1      31.960  42.914  56.676  0.00  0.00     0.288 A 
HETATM   26  O   UNK N   1      32.131  42.771  55.481  0.00  0.00    -0.260 OA
HETATM   27  C   UNK N   1      30.661  42.972  57.197  0.00  0.00     0.083 A 
ENDBRANCH  16  17
ENDBRANCH  15  16
ENDBRANCH   1  15
BRANCH   5  28
HETATM   28  O   UNK N   1      32.360  50.176  64.811  0.00  0.00    -0.395 OA
HETATM   29  H   UNK N   1      33.080  50.659  65.296  0.00  0.00     0.210 HD
ENDBRANCH   5  28
TORSDOF 4
ENDMDL
MODEL 3
REMARK VINA RESULT:      -6.7      1.327      2.446
REMARK  4 active torsions:
REMARK  status: ('A' for Active; 'I' for Inactive)
REMARK    1  A    between atoms: C_8  and  O_10 
REMARK    2  A    between atoms: O_10  and  C_11 
REMARK    3  A    between atoms: C_11  and  C_12 
REMARK    4  A    between atoms: C_16  and  O_17 
ROOT
HETATM    1  C   UNK N   1      42.267  45.244  47.954  0.00  0.00     0.047 C 
HETATM    2  C   UNK N   1      41.609  45.290  49.397  0.00  0.00    -0.030 C 
HETATM    3  C   UNK N   1      41.803  43.849  50.042  0.00  0.00     0.005 C 
HETATM    4  C   UNK N   1      41.483  43.722  51.594  0.00  0.00    -0.017 C 
HETATM    5  C   UNK N   1      42.230  44.869  52.355  0.00  0.00     0.126 C 
HETATM    6  C   UNK N   1      41.930  46.260  51.767  0.00  0.00     0.033 C 
HETATM    7  C   UNK N   1      42.354  46.323  50.292  0.00  0.00     0.013 C 
HETATM    8  C   UNK N   1      39.970  43.717  51.945  0.00  0.00     0.018 C 
HETATM    9  C   UNK N   1      42.049  42.373  52.122  0.00  0.00     0.018 C 
HETATM   10  C   UNK N   1      41.126  42.750  49.165  0.00  0.00     0.010 C 
HETATM   11  C   UNK N   1      41.678  42.755  47.735  0.00  0.00     0.034 C 
HETATM   12  C   UNK N   1      41.581  44.137  47.153  0.00  0.00    -0.082 C 
HETATM   13  C   UNK N   1      40.909  44.340  46.003  0.00  0.00     0.015 C 
HETATM   14  C   UNK N   1      40.116  45.731  49.252  0.00  0.00     0.016 C 
ENDROOT
BRANCH   1  15
HETATM   15  C   UNK N   1      42.341  46.615  47.243  0.00  0.00     0.185 C 
BRANCH  15  16
HETATM   16  O   UNK N   1      41.110  47.245  47.245  0.00  0.00    -0.350 OA
BRANCH  16  17
HETATM   17  C   UNK N   1      40.650  48.001  46.212  0.00  0.00     0.071 A 
HETATM   18  C   UNK N   1      41.390  49.121  45.806  0.00  0.00     0.038 A 
HETATM   19  C   UNK N   1      40.946  49.918  44.744  0.00  0.00     0.017 A 
HETATM   20  C   UNK N   1      39.753  49.601  44.082  0.00  0.00    -0.002 A 
HETATM   21  C   UNK N   1      39.003  48.476  44.483  0.00  0.00     0.092 A 
HETATM   22  C   UNK N   1      39.275  50.375  43.020  0.00  0.00     0.020 A 
HETATM   23  O   UNK N   1      37.870  48.165  43.863  0.00  0.00    -0.275 OA
HETATM   24  C   UNK N   1      39.451  47.686  45.538  0.00  0.00     0.075 A 
HETATM   25  C   UNK N   1      37.389  48.882  42.850  0.00  0.00     0.288 A 
HETATM   26  O   UNK N   1      36.347  48.553  42.319  0.00  0.00    -0.260 OA
HETATM   27  C   UNK N   1      38.081  50.014  42.398  0.00  0.00     0.083 A 
ENDBRANCH  16  17
ENDBRANCH  15  16
ENDBRANCH   1  15
BRANCH   5  28
HETATM   28  O   UNK N   1      41.896  44.841  53.722  0.00  0.00    -0.395 OA
HETATM   29  H   UNK N   1      40.908  44.765  53.783  0.00  0.00     0.210 HD
ENDBRANCH   5  28
TORSDOF 4
ENDMDL
MODEL 4
REMARK VINA RESULT:      -6.7     13.979     17.372
REMARK  4 active torsions:
REMARK  status: ('A' for Active; 'I' for Inactive)
REMARK    1  A    between atoms: C_8  and  O_10 
REMARK    2  A    between atoms: O_10  and  C_11 
REMARK    3  A    between atoms: C_11  and  C_12 
REMARK    4  A    between atoms: C_16  and  O_17 
ROOT
HETATM    1  C   UNK N   1      30.937  45.487  62.388  0.00  0.00     0.047 C 
HETATM    2  C   UNK N   1      30.927  44.462  61.178  0.00  0.00    -0.030 C 
HETATM    3  C   UNK N   1      30.852  45.322  59.841  0.00  0.00     0.005 C 
HETATM    4  C   UNK N   1      31.117  44.539  58.483  0.00  0.00    -0.017 C 
HETATM    5  C   UNK N   1      32.433  43.706  58.634  0.00  0.00     0.126 C 
HETATM    6  C   UNK N   1      32.422  42.804  59.882  0.00  0.00     0.033 C 
HETATM    7  C   UNK N   1      32.255  43.649  61.154  0.00  0.00     0.013 C 
HETATM    8  C   UNK N   1      29.941  43.638  58.015  0.00  0.00     0.018 C 
HETATM    9  C   UNK N   1      31.350  45.567  57.340  0.00  0.00     0.018 C 
HETATM   10  C   UNK N   1      29.568  46.208  59.821  0.00  0.00     0.010 C 
HETATM   11  C   UNK N   1      29.509  47.138  61.037  0.00  0.00     0.034 C 
HETATM   12  C   UNK N   1      29.672  46.340  62.300  0.00  0.00    -0.082 C 
HETATM   13  C   UNK N   1      28.727  46.394  63.261  0.00  0.00     0.015 C 
HETATM   14  C   UNK N   1      29.733  43.472  61.371  0.00  0.00     0.016 C 
ENDROOT
BRANCH   1  15
HETATM   15  C   UNK N   1      31.195  44.841  63.769  0.00  0.00     0.185 C 
BRANCH  15  16
HETATM   16  O   UNK N   1      32.042  45.621  64.534  0.00  0.00    -0.350 OA
BRANCH  16  17
HETATM   17  C   UNK N   1      33.202  46.155  64.066  0.00  0.00     0.071 A 
HETATM   18  C   UNK N   1      33.292  47.544  63.894  0.00  0.00     0.038 A 
HETATM   19  C   UNK N   1      34.473  48.125  63.417  0.00  0.00     0.017 A 
HETATM   20  C   UNK N   1      35.575  47.317  63.105  0.00  0.00    -0.002 A 
HETATM   21  C   UNK N   1      35.492  45.920  63.276  0.00  0.00     0.092 A 
HETATM   22  C   UNK N   1      36.769  47.859  62.623  0.00  0.00     0.020 A 
HETATM   23  O   UNK N   1      36.531  45.142  62.984  0.00  0.00    -0.275 OA
HETATM   24  C   UNK N   1      34.316  45.348  63.753  0.00  0.00     0.075 A 
HETATM   25  C   UNK N   1      37.680  45.629  62.522  0.00  0.00     0.288 A 
HETATM   26  O   UNK N   1      38.598  44.873  62.269  0.00  0.00    -0.260 OA
HETATM   27  C   UNK N   1      37.833  47.008  62.327  0.00  0.00     0.083 A 
ENDBRANCH  16  17
ENDBRANCH  15  16
ENDBRANCH   1  15
BRANCH   5  28
HETATM   28  O   UNK N   1      32.650  42.928  57.480  0.00  0.00    -0.395 OA
HETATM   29  H   UNK N   1      31.858  42.339  57.368  0.00  0.00     0.210 HD
ENDBRANCH   5  28
TORSDOF 4
ENDMDL
MODEL 5
REMARK VINA RESULT:      -6.5     13.167     15.671
REMARK  4 active torsions:
REMARK  status: ('A' for Active; 'I' for Inactive)
REMARK    1  A    between atoms: C_8  and  O_10 
REMARK    2  A    between atoms: O_10  and  C_11 
REMARK    3  A    between atoms: C_11  and  C_12 
REMARK    4  A    between atoms: C_16  and  O_17 
ROOT
HETATM    1  C   UNK N   1      29.387  42.534  57.329  0.00  0.00     0.047 C 
HETATM    2  C   UNK N   1      29.358  41.861  55.892  0.00  0.00    -0.030 C 
HETATM    3  C   UNK N   1      28.161  42.535  55.089  0.00  0.00     0.005 C 
HETATM    4  C   UNK N   1      28.102  42.236  53.529  0.00  0.00    -0.017 C 
HETATM    5  C   UNK N   1      29.516  42.506  52.914  0.00  0.00     0.126 C 
HETATM    6  C   UNK N   1      30.635  41.749  53.653  0.00  0.00     0.033 C 
HETATM    7  C   UNK N   1      30.681  42.166  55.131  0.00  0.00     0.013 C 
HETATM    8  C   UNK N   1      27.599  40.813  53.161  0.00  0.00     0.018 C 
HETATM    9  C   UNK N   1      27.110  43.227  52.857  0.00  0.00     0.018 C 
HETATM   10  C   UNK N   1      26.803  42.316  55.826  0.00  0.00     0.010 C 
HETATM   11  C   UNK N   1      26.844  42.872  57.254  0.00  0.00     0.034 C 
HETATM   12  C   UNK N   1      28.028  42.308  57.989  0.00  0.00    -0.082 C 
HETATM   13  C   UNK N   1      27.849  41.641  59.147  0.00  0.00     0.015 C 
HETATM   14  C   UNK N   1      29.221  40.314  56.068  0.00  0.00     0.016 C 
ENDROOT
BRANCH   1  15
HETATM   15  C   UNK N   1      30.607  42.138  58.193  0.00  0.00     0.185 C 
BRANCH  15  16
HETATM   16  O   UNK N   1      31.426  43.227  58.428  0.00  0.00    -0.350 OA
BRANCH  16  17
HETATM   17  C   UNK N   1      30.960  44.489  58.629  0.00  0.00     0.071 A 
HETATM   18  C   UNK N   1      30.358  44.805  59.855  0.00  0.00     0.038 A 
HETATM   19  C   UNK N   1      29.870  46.096  60.095  0.00  0.00     0.017 A 
HETATM   20  C   UNK N   1      29.981  47.081  59.104  0.00  0.00    -0.002 A 
HETATM   21  C   UNK N   1      30.586  46.771  57.869  0.00  0.00     0.092 A 
HETATM   22  C   UNK N   1      29.503  48.379  59.305  0.00  0.00     0.020 A 
HETATM   23  O   UNK N   1      30.696  47.697  56.922  0.00  0.00    -0.275 OA
HETATM   24  C   UNK N   1      31.070  45.487  57.638  0.00  0.00     0.075 A 
HETATM   25  C   UNK N   1      30.251  48.941  57.083  0.00  0.00     0.288 A 
HETATM   26  O   UNK N   1      30.377  49.748  56.183  0.00  0.00    -0.260 OA
HETATM   27  C   UNK N   1      29.638  49.319  58.284  0.00  0.00     0.083 A 
ENDBRANCH  16  17
ENDBRANCH  15  16
ENDBRANCH   1  15
BRANCH   5  28
HETATM   28  O   UNK N   1      29.525  42.164  51.548  0.00  0.00    -0.395 OA
HETATM   29  H   UNK N   1      29.051  41.295  51.458  0.00  0.00     0.210 HD
ENDBRANCH   5  28
TORSDOF 4
ENDMDL
MODEL 6
REMARK VINA RESULT:      -6.4     13.112     15.701
REMARK  4 active torsions:
REMARK  status: ('A' for Active; 'I' for Inactive)
REMARK    1  A    between atoms: C_8  and  O_10 
REMARK    2  A    between atoms: O_10  and  C_11 
REMARK    3  A    between atoms: C_11  and  C_12 
REMARK    4  A    between atoms: C_16  and  O_17 
ROOT
HETATM    1  C   UNK N   1      27.802  44.039  57.588  0.00  0.00     0.047 C 
HETATM    2  C   UNK N   1      28.854  42.947  57.120  0.00  0.00    -0.030 C 
HETATM    3  C   UNK N   1      28.520  42.601  55.603  0.00  0.00     0.005 C 
HETATM    4  C   UNK N   1      29.606  41.744  54.820  0.00  0.00    -0.017 C 
HETATM    5  C   UNK N   1      31.011  42.402  55.032  0.00  0.00     0.126 C 
HETATM    6  C   UNK N   1      31.342  42.621  56.520  0.00  0.00     0.033 C 
HETATM    7  C   UNK N   1      30.295  43.533  57.175  0.00  0.00     0.013 C 
HETATM    8  C   UNK N   1      29.637  40.237  55.198  0.00  0.00     0.018 C 
HETATM    9  C   UNK N   1      29.296  41.797  53.298  0.00  0.00     0.018 C 
HETATM   10  C   UNK N   1      27.064  42.057  55.464  0.00  0.00     0.010 C 
HETATM   11  C   UNK N   1      26.037  43.058  56.003  0.00  0.00     0.034 C 
HETATM   12  C   UNK N   1      26.400  43.459  57.405  0.00  0.00    -0.082 C 
HETATM   13  C   UNK N   1      25.516  43.285  58.408  0.00  0.00     0.015 C 
HETATM   14  C   UNK N   1      28.769  41.724  58.090  0.00  0.00     0.016 C 
ENDROOT
BRANCH   1  15
HETATM   15  C   UNK N   1      28.085  44.639  58.985  0.00  0.00     0.185 C 
BRANCH  15  16
HETATM   16  O   UNK N   1      27.408  45.832  59.161  0.00  0.00    -0.350 OA
BRANCH  16  17
HETATM   17  C   UNK N   1      27.634  46.943  58.410  0.00  0.00     0.071 A 
HETATM   18  C   UNK N   1      26.545  47.742  58.032  0.00  0.00     0.038 A 
HETATM   19  C   UNK N   1      26.743  48.894  57.261  0.00  0.00     0.017 A 
HETATM   20  C   UNK N   1      28.037  49.253  56.860  0.00  0.00    -0.002 A 
HETATM   21  C   UNK N   1      29.137  48.456  57.236  0.00  0.00     0.092 A 
HETATM   22  C   UNK N   1      28.275  50.393  56.087  0.00  0.00     0.020 A 
HETATM   23  O   UNK N   1      30.369  48.787  56.862  0.00  0.00    -0.275 OA
HETATM   24  C   UNK N   1      28.934  47.313  58.004  0.00  0.00     0.075 A 
HETATM   25  C   UNK N   1      30.627  49.865  56.126  0.00  0.00     0.288 A 
HETATM   26  O   UNK N   1      31.773  50.120  55.810  0.00  0.00    -0.260 OA
HETATM   27  C   UNK N   1      29.582  50.703  55.715  0.00  0.00     0.083 A 
ENDBRANCH  16  17
ENDBRANCH  15  16
ENDBRANCH   1  15
BRANCH   5  28
HETATM   28  O   UNK N   1      32.011  41.617  54.427  0.00  0.00    -0.395 OA
HETATM   29  H   UNK N   1      31.663  41.325  53.543  0.00  0.00     0.210 HD
ENDBRANCH   5  28
TORSDOF 4
ENDMDL
MODEL 7
REMARK VINA RESULT:      -6.2     13.551     15.561
REMARK  4 active torsions:
REMARK  status: ('A' for Active; 'I' for Inactive)
REMARK    1  A    between atoms: C_8  and  O_10 
REMARK    2  A    between atoms: O_10  and  C_11 
REMARK    3  A    between atoms: C_11  and  C_12 
REMARK    4  A    between atoms: C_16  and  O_17 
ROOT
HETATM    1  C   UNK N   1      29.466  43.937  57.872  0.00  0.00     0.047 C 
HETATM    2  C   UNK N   1      28.813  45.237  58.505  0.00  0.00    -0.030 C 
HETATM    3  C   UNK N   1      29.440  46.488  57.747  0.00  0.00     0.005 C 
HETATM    4  C   UNK N   1      28.739  47.891  58.003  0.00  0.00    -0.017 C 
HETATM    5  C   UNK N   1      27.196  47.725  57.795  0.00  0.00     0.126 C 
HETATM    6  C   UNK N   1      26.609  46.572  58.629  0.00  0.00     0.033 C 
HETATM    7  C   UNK N   1      27.277  45.241  58.254  0.00  0.00     0.013 C 
HETATM    8  C   UNK N   1      29.047  48.526  59.387  0.00  0.00     0.018 C 
HETATM    9  C   UNK N   1      29.240  48.912  56.942  0.00  0.00     0.018 C 
HETATM   10  C   UNK N   1      30.992  46.517  57.910  0.00  0.00     0.010 C 
HETATM   11  C   UNK N   1      31.635  45.225  57.394  0.00  0.00     0.034 C 
HETATM   12  C   UNK N   1      30.982  44.035  58.039  0.00  0.00    -0.082 C 
HETATM   13  C   UNK N   1      31.727  43.145  58.725  0.00  0.00     0.015 C 
HETATM   14  C   UNK N   1      29.072  45.226  60.047  0.00  0.00     0.016 C 
ENDROOT
BRANCH   1  15
HETATM   15  C   UNK N   1      28.839  42.608  58.355  0.00  0.00     0.185 C 
BRANCH  15  16
HETATM   16  O   UNK N   1      29.027  41.602  57.426  0.00  0.00    -0.350 OA
BRANCH  16  17
HETATM   17  C   UNK N   1      29.008  41.805  56.082  0.00  0.00     0.071 A 
HETATM   18  C   UNK N   1      30.155  41.508  55.331  0.00  0.00     0.038 A 
HETATM   19  C   UNK N   1      30.167  41.703  53.945  0.00  0.00     0.017 A 
HETATM   20  C   UNK N   1      29.028  42.201  53.298  0.00  0.00    -0.002 A 
HETATM   21  C   UNK N   1      27.870  42.502  54.045  0.00  0.00     0.092 A 
HETATM   22  C   UNK N   1      29.002  42.413  51.917  0.00  0.00     0.020 A 
HETATM   23  O   UNK N   1      26.783  42.975  53.444  0.00  0.00    -0.275 OA
HETATM   24  C   UNK N   1      27.864  42.304  55.423  0.00  0.00     0.075 A 
HETATM   25  C   UNK N   1      26.729  43.188  52.131  0.00  0.00     0.288 A 
HETATM   26  O   UNK N   1      25.710  43.623  51.632  0.00  0.00    -0.260 OA
HETATM   27  C   UNK N   1      27.842  42.912  51.326  0.00  0.00     0.083 A 
ENDBRANCH  16  17
ENDBRANCH  15  16
ENDBRANCH   1  15
BRANCH   5  28
HETATM   28  O   UNK N   1      26.532  48.928  58.102  0.00  0.00    -0.395 OA
HETATM   29  H   UNK N   1      27.179  49.668  57.953  0.00  0.00     0.210 HD
ENDBRANCH   5  28
TORSDOF 4
ENDMDL
MODEL 8
REMARK VINA RESULT:      -6.2     14.471     17.766
REMARK  4 active torsions:
REMARK  status: ('A' for Active; 'I' for Inactive)
REMARK    1  A    between atoms: C_8  and  O_10 
REMARK    2  A    between atoms: O_10  and  C_11 
REMARK    3  A    between atoms: C_11  and  C_12 
REMARK    4  A    between atoms: C_16  and  O_17 
ROOT
HETATM    1  C   UNK N   1      30.487  47.397  62.542  0.00  0.00     0.047 C 
HETATM    2  C   UNK N   1      30.027  46.392  61.404  0.00  0.00    -0.030 C 
HETATM    3  C   UNK N   1      30.009  47.211  60.040  0.00  0.00     0.005 C 
HETATM    4  C   UNK N   1      29.856  46.359  58.707  0.00  0.00    -0.017 C 
HETATM    5  C   UNK N   1      30.898  45.190  58.738  0.00  0.00     0.126 C 
HETATM    6  C   UNK N   1      30.809  44.354  60.028  0.00  0.00     0.033 C 
HETATM    7  C   UNK N   1      31.060  45.237  61.259  0.00  0.00     0.013 C 
HETATM    8  C   UNK N   1      28.423  45.818  58.445  0.00  0.00     0.018 C 
HETATM    9  C   UNK N   1      30.205  47.256  57.486  0.00  0.00     0.018 C 
HETATM   10  C   UNK N   1      29.031  48.424  60.132  0.00  0.00     0.010 C 
HETATM   11  C   UNK N   1      29.400  49.356  61.290  0.00  0.00     0.034 C 
HETATM   12  C   UNK N   1      29.509  48.570  62.566  0.00  0.00    -0.082 C 
HETATM   13  C   UNK N   1      28.758  48.908  63.634  0.00  0.00     0.015 C 
HETATM   14  C   UNK N   1      28.643  45.784  61.804  0.00  0.00     0.016 C 
ENDROOT
BRANCH   1  15
HETATM   15  C   UNK N   1      30.744  46.731  63.914  0.00  0.00     0.185 C 
BRANCH  15  16
HETATM   16  O   UNK N   1      31.766  47.368  64.593  0.00  0.00    -0.350 OA
BRANCH  16  17
HETATM   17  C   UNK N   1      33.019  47.526  64.090  0.00  0.00     0.071 A 
HETATM   18  C   UNK N   1      33.533  48.822  63.936  0.00  0.00     0.038 A 
HETATM   19  C   UNK N   1      34.821  49.019  63.424  0.00  0.00     0.017 A 
HETATM   20  C   UNK N   1      35.605  47.917  63.058  0.00  0.00    -0.002 A 
HETATM   21  C   UNK N   1      35.097  46.611  63.209  0.00  0.00     0.092 A 
HETATM   22  C   UNK N   1      36.894  48.074  62.539  0.00  0.00     0.020 A 
HETATM   23  O   UNK N   1      35.831  45.557  62.866  0.00  0.00    -0.275 OA
HETATM   24  C   UNK N   1      33.817  46.421  63.722  0.00  0.00     0.075 A 
HETATM   25  C   UNK N   1      37.060  45.675  62.369  0.00  0.00     0.288 A 
HETATM   26  O   UNK N   1      37.688  44.677  62.070  0.00  0.00    -0.260 OA
HETATM   27  C   UNK N   1      37.629  46.942  62.190  0.00  0.00     0.083 A 
ENDBRANCH  16  17
ENDBRANCH  15  16
ENDBRANCH   1  15
BRANCH   5  28
HETATM   28  O   UNK N   1      30.729  44.360  57.613  0.00  0.00    -0.395 OA
HETATM   29  H   UNK N   1      31.376  43.612  57.698  0.00  0.00     0.210 HD
ENDBRANCH   5  28
TORSDOF 4
ENDMDL
MODEL 9
REMARK VINA RESULT:      -6.2     14.532     16.058
REMARK  4 active torsions:
REMARK  status: ('A' for Active; 'I' for Inactive)
REMARK    1  A    between atoms: C_8  and  O_10 
REMARK    2  A    between atoms: O_10  and  C_11 
REMARK    3  A    between atoms: C_11  and  C_12 
REMARK    4  A    between atoms: C_16  and  O_17 
ROOT
HETATM    1  C   UNK N   1      31.904  44.015  61.202  0.00  0.00     0.047 C 
HETATM    2  C   UNK N   1      32.739  44.460  62.475  0.00  0.00    -0.030 C 
HETATM    3  C   UNK N   1      34.236  44.697  61.989  0.00  0.00     0.005 C 
HETATM    4  C   UNK N   1      35.206  45.423  63.019  0.00  0.00    -0.017 C 
HETATM    5  C   UNK N   1      34.495  46.711  63.553  0.00  0.00     0.126 C 
HETATM    6  C   UNK N   1      33.091  46.422  64.114  0.00  0.00     0.033 C 
HETATM    7  C   UNK N   1      32.193  45.808  63.030  0.00  0.00     0.013 C 
HETATM    8  C   UNK N   1      35.688  44.528  64.194  0.00  0.00     0.018 C 
HETATM    9  C   UNK N   1      36.491  45.879  62.273  0.00  0.00     0.018 C 
HETATM   10  C   UNK N   1      34.832  43.395  61.368  0.00  0.00     0.010 C 
HETATM   11  C   UNK N   1      33.982  42.892  60.197  0.00  0.00     0.034 C 
HETATM   12  C   UNK N   1      32.548  42.755  60.626  0.00  0.00    -0.082 C 
HETATM   13  C   UNK N   1      31.917  41.569  60.505  0.00  0.00     0.015 C 
HETATM   14  C   UNK N   1      32.590  43.363  63.579  0.00  0.00     0.016 C 
ENDROOT
BRANCH   1  15
HETATM   15  C   UNK N   1      30.379  43.919  61.442  0.00  0.00     0.185 C 
BRANCH  15  16
HETATM   16  O   UNK N   1      29.675  44.168  60.279  0.00  0.00    -0.350 OA
BRANCH  16  17
HETATM   17  C   UNK N   1      29.846  45.283  59.520  0.00  0.00     0.071 A 
HETATM   18  C   UNK N   1      30.516  45.175  58.292  0.00  0.00     0.038 A 
HETATM   19  C   UNK N   1      30.706  46.304  57.486  0.00  0.00     0.017 A 
HETATM   20  C   UNK N   1      30.227  47.553  57.905  0.00  0.00    -0.002 A 
HETATM   21  C   UNK N   1      29.552  47.669  59.137  0.00  0.00     0.092 A 
HETATM   22  C   UNK N   1      30.400  48.703  57.130  0.00  0.00     0.020 A 
HETATM   23  O   UNK N   1      29.093  48.848  59.546  0.00  0.00    -0.275 OA
HETATM   24  C   UNK N   1      29.364  46.543  59.933  0.00  0.00     0.075 A 
HETATM   25  C   UNK N   1      29.243  49.960  58.830  0.00  0.00     0.288 A 
HETATM   26  O   UNK N   1      28.805  51.013  59.252  0.00  0.00    -0.260 OA
HETATM   27  C   UNK N   1      29.905  49.919  57.596  0.00  0.00     0.083 A 
ENDBRANCH  16  17
ENDBRANCH  15  16
ENDBRANCH   1  15
BRANCH   5  28
HETATM   28  O   UNK N   1      35.289  47.331  64.537  0.00  0.00    -0.395 OA
HETATM   29  H   UNK N   1      36.017  47.817  64.066  0.00  0.00     0.210 HD
ENDBRANCH   5  28
TORSDOF 4
ENDMDL
