MODEL 1
REMARK VINA RESULT:      -6.6      0.000      0.000
REMARK  10 active torsions:
REMARK  status: ('A' for Active; 'I' for Inactive)
REMARK    1  A    between atoms: C_5  and  O_6 
REMARK    2  A    between atoms: C_5  and  C_12 
REMARK    3  A    between atoms: C_13  and  C_14 
REMARK    4  A    between atoms: C_14  and  O_15 
REMARK    5  A    between atoms: O_15  and  C_16 
REMARK    6  A    between atoms: C_18  and  C_28 
REMARK    7  A    between atoms: C_19  and  O_20 
REMARK    8  A    between atoms: C_22  and  O_23 
REMARK    9  A    between atoms: C_25  and  O_26 
REMARK   10  A    between atoms: C_28  and  O_29 
ROOT
HETATM    1  C   UNK N   1      40.857  48.252  45.384  0.00  0.00     0.143 C 
HETATM    2  C   UNK N   1      42.153  49.017  45.652  0.00  0.00     0.044 C 
ENDROOT
BRANCH   1   3
HETATM    3  C   UNK N   1      40.918  46.930  46.116  0.00  0.00     0.004 C 
HETATM    4  C   UNK N   1      41.123  46.883  47.446  0.00  0.00     0.014 C 
BRANCH   4   5
HETATM    5  C   UNK N   1      41.217  45.579  48.247  0.00  0.00     0.106 C 
HETATM    6  C   UNK N   1      41.796  45.867  49.654  0.00  0.00    -0.042 C 
HETATM    7  C   UNK N   1      41.403  45.161  50.737  0.00  0.00     0.056 C 
HETATM    8  C   UNK N   1      42.845  46.939  49.825  0.00  0.00     0.047 C 
HETATM    9  C   UNK N   1      40.396  44.090  50.631  0.00  0.00     0.150 C 
HETATM   10  O   UNK N   1      39.941  43.579  51.641  0.00  0.00    -0.293 OA
HETATM   11  C   UNK N   1      39.900  43.670  49.278  0.00  0.00     0.095 C 
HETATM   12  C   UNK N   1      39.784  44.900  48.347  0.00  0.00    -0.002 C 
HETATM   13  C   UNK N   1      39.308  44.420  46.956  0.00  0.00     0.019 C 
HETATM   14  C   UNK N   1      38.700  45.866  48.907  0.00  0.00     0.019 C 
BRANCH   5  15
HETATM   15  O   UNK N   1      42.085  44.665  47.605  0.00  0.00    -0.380 OA
HETATM   16  H   UNK N   1      42.846  44.464  48.211  0.00  0.00     0.211 HD
ENDBRANCH   5  15
ENDBRANCH   4   5
ENDBRANCH   1   3
BRANCH   1  17
HETATM   17  O   UNK N   1      39.779  49.052  45.843  0.00  0.00    -0.350 OA
BRANCH  17  18
HETATM   18  C   UNK N   1      38.968  49.550  44.787  0.00  0.00     0.292 C 
HETATM   19  O   UNK N   1      38.375  48.479  44.067  0.00  0.00    -0.348 OA
HETATM   20  C   UNK N   1      37.501  48.974  43.062  0.00  0.00     0.179 C 
HETATM   21  C   UNK N   1      38.311  49.715  41.978  0.00  0.00     0.180 C 
HETATM   22  C   UNK N   1      39.063  50.881  42.651  0.00  0.00     0.183 C 
HETATM   23  C   UNK N   1      39.883  50.357  43.839  0.00  0.00     0.204 C 
BRANCH  20  24
HETATM   24  C   UNK N   1      36.712  47.795  42.477  0.00  0.00     0.198 C 
BRANCH  24  25
HETATM   25  O   UNK N   1      36.349  46.896  43.491  0.00  0.00    -0.398 OA
HETATM   26  H   UNK N   1      37.038  46.181  43.504  0.00  0.00     0.209 HD
ENDBRANCH  24  25
ENDBRANCH  20  24
BRANCH  21  27
HETATM   27  O   UNK N   1      37.438  50.210  40.994  0.00  0.00    -0.390 OA
HETATM   28  H   UNK N   1      37.986  50.406  40.189  0.00  0.00     0.210 HD
ENDBRANCH  21  27
BRANCH  22  29
HETATM   29  O   UNK N   1      39.921  51.510  41.735  0.00  0.00    -0.390 OA
HETATM   30  H   UNK N   1      40.846  51.231  41.963  0.00  0.00     0.210 HD
ENDBRANCH  22  29
BRANCH  23  31
HETATM   31  O   UNK N   1      40.459  51.447  44.513  0.00  0.00    -0.388 OA
HETATM   32  H   UNK N   1      40.008  51.518  45.394  0.00  0.00     0.210 HD
ENDBRANCH  23  31
ENDBRANCH  17  18
ENDBRANCH   1  17
TORSDOF 10
ENDMDL
MODEL 2
REMARK VINA RESULT:      -6.3      0.882      2.378
REMARK  10 active torsions:
REMARK  status: ('A' for Active; 'I' for Inactive)
REMARK    1  A    between atoms: C_5  and  O_6 
REMARK    2  A    between atoms: C_5  and  C_12 
REMARK    3  A    between atoms: C_13  and  C_14 
REMARK    4  A    between atoms: C_14  and  O_15 
REMARK    5  A    between atoms: O_15  and  C_16 
REMARK    6  A    between atoms: C_18  and  C_28 
REMARK    7  A    between atoms: C_19  and  O_20 
REMARK    8  A    between atoms: C_22  and  O_23 
REMARK    9  A    between atoms: C_25  and  O_26 
REMARK   10  A    between atoms: C_28  and  O_29 
ROOT
HETATM    1  C   UNK N   1      42.026  48.305  45.583  0.00  0.00     0.143 C 
HETATM    2  C   UNK N   1      43.009  49.288  46.216  0.00  0.00     0.044 C 
ENDROOT
BRANCH   1   3
HETATM    3  C   UNK N   1      42.076  47.008  46.357  0.00  0.00     0.004 C 
HETATM    4  C   UNK N   1      41.273  46.803  47.418  0.00  0.00     0.014 C 
BRANCH   4   5
HETATM    5  C   UNK N   1      41.286  45.522  48.262  0.00  0.00     0.106 C 
HETATM    6  C   UNK N   1      41.839  45.829  49.674  0.00  0.00    -0.042 C 
HETATM    7  C   UNK N   1      41.386  45.177  50.767  0.00  0.00     0.056 C 
HETATM    8  C   UNK N   1      42.931  46.857  49.841  0.00  0.00     0.047 C 
HETATM    9  C   UNK N   1      40.334  44.149  50.666  0.00  0.00     0.150 C 
HETATM   10  O   UNK N   1      39.828  43.692  51.678  0.00  0.00    -0.293 OA
HETATM   11  C   UNK N   1      39.855  43.708  49.313  0.00  0.00     0.095 C 
HETATM   12  C   UNK N   1      39.820  44.912  48.342  0.00  0.00    -0.002 C 
HETATM   13  C   UNK N   1      39.361  44.410  46.953  0.00  0.00     0.019 C 
HETATM   14  C   UNK N   1      38.768  45.943  48.841  0.00  0.00     0.019 C 
BRANCH   5  15
HETATM   15  O   UNK N   1      42.127  44.550  47.673  0.00  0.00    -0.380 OA
HETATM   16  H   UNK N   1      41.697  43.659  47.756  0.00  0.00     0.211 HD
ENDBRANCH   5  15
ENDBRANCH   4   5
ENDBRANCH   1   3
BRANCH   1  17
HETATM   17  O   UNK N   1      40.735  48.891  45.631  0.00  0.00    -0.350 OA
BRANCH  17  18
HETATM   18  C   UNK N   1      40.105  48.953  44.359  0.00  0.00     0.292 C 
HETATM   19  O   UNK N   1      40.118  50.284  43.861  0.00  0.00    -0.348 OA
HETATM   20  C   UNK N   1      39.561  50.337  42.555  0.00  0.00     0.179 C 
HETATM   21  C   UNK N   1      38.056  50.002  42.613  0.00  0.00     0.180 C 
HETATM   22  C   UNK N   1      37.898  48.586  43.201  0.00  0.00     0.183 C 
HETATM   23  C   UNK N   1      38.641  48.493  44.542  0.00  0.00     0.204 C 
BRANCH  20  24
HETATM   24  C   UNK N   1      39.812  51.734  41.973  0.00  0.00     0.198 C 
BRANCH  24  25
HETATM   25  O   UNK N   1      40.192  52.626  42.986  0.00  0.00    -0.398 OA
HETATM   26  H   UNK N   1      41.184  52.606  43.032  0.00  0.00     0.209 HD
ENDBRANCH  24  25
ENDBRANCH  20  24
BRANCH  21  27
HETATM   27  O   UNK N   1      37.514  50.046  41.316  0.00  0.00    -0.390 OA
HETATM   28  H   UNK N   1      38.024  49.399  40.763  0.00  0.00     0.210 HD
ENDBRANCH  21  27
BRANCH  22  29
HETATM   29  O   UNK N   1      36.542  48.281  43.400  0.00  0.00    -0.390 OA
HETATM   30  H   UNK N   1      36.327  48.506  44.342  0.00  0.00     0.210 HD
ENDBRANCH  22  29
BRANCH  23  31
HETATM   31  O   UNK N   1      38.592  47.165  45.001  0.00  0.00    -0.388 OA
HETATM   32  H   UNK N   1      39.527  46.837  45.049  0.00  0.00     0.210 HD
ENDBRANCH  23  31
ENDBRANCH  17  18
ENDBRANCH   1  17
TORSDOF 10
ENDMDL
MODEL 3
REMARK VINA RESULT:      -5.8     15.194     17.676
REMARK  10 active torsions:
REMARK  status: ('A' for Active; 'I' for Inactive)
REMARK    1  A    between atoms: C_5  and  O_6 
REMARK    2  A    between atoms: C_5  and  C_12 
REMARK    3  A    between atoms: C_13  and  C_14 
REMARK    4  A    between atoms: C_14  and  O_15 
REMARK    5  A    between atoms: O_15  and  C_16 
REMARK    6  A    between atoms: C_18  and  C_28 
REMARK    7  A    between atoms: C_19  and  O_20 
REMARK    8  A    between atoms: C_22  and  O_23 
REMARK    9  A    between atoms: C_25  and  O_26 
REMARK   10  A    between atoms: C_28  and  O_29 
ROOT
HETATM    1  C   UNK N   1      49.874  53.116  60.007  0.00  0.00     0.143 C 
HETATM    2  C   UNK N   1      51.355  53.396  60.250  0.00  0.00     0.044 C 
ENDROOT
BRANCH   1   3
HETATM    3  C   UNK N   1      49.608  53.185  58.520  0.00  0.00     0.004 C 
HETATM    4  C   UNK N   1      50.181  54.135  57.756  0.00  0.00     0.014 C 
BRANCH   4   5
HETATM    5  C   UNK N   1      49.939  54.277  56.249  0.00  0.00     0.106 C 
HETATM    6  C   UNK N   1      49.367  55.681  55.939  0.00  0.00    -0.042 C 
HETATM    7  C   UNK N   1      49.665  56.327  54.790  0.00  0.00     0.056 C 
HETATM    8  C   UNK N   1      48.429  56.339  56.921  0.00  0.00     0.047 C 
HETATM    9  C   UNK N   1      50.560  55.729  53.783  0.00  0.00     0.150 C 
HETATM   10  O   UNK N   1      50.942  56.393  52.834  0.00  0.00    -0.293 OA
HETATM   11  C   UNK N   1      51.035  54.316  53.960  0.00  0.00     0.095 C 
HETATM   12  C   UNK N   1      51.294  54.024  55.458  0.00  0.00    -0.002 C 
HETATM   13  C   UNK N   1      51.745  52.552  55.601  0.00  0.00     0.019 C 
HETATM   14  C   UNK N   1      52.460  54.923  55.962  0.00  0.00     0.019 C 
BRANCH   5  15
HETATM   15  O   UNK N   1      48.996  53.321  55.807  0.00  0.00    -0.380 OA
HETATM   16  H   UNK N   1      49.072  52.508  56.372  0.00  0.00     0.211 HD
ENDBRANCH   5  15
ENDBRANCH   4   5
ENDBRANCH   1   3
BRANCH   1  17
HETATM   17  O   UNK N   1      49.584  51.829  60.528  0.00  0.00    -0.350 OA
BRANCH  17  18
HETATM   18  C   UNK N   1      48.262  51.396  60.239  0.00  0.00     0.292 C 
HETATM   19  O   UNK N   1      47.334  52.003  61.126  0.00  0.00    -0.348 OA
HETATM   20  C   UNK N   1      46.003  51.636  60.790  0.00  0.00     0.179 C 
HETATM   21  C   UNK N   1      45.793  50.129  61.045  0.00  0.00     0.180 C 
HETATM   22  C   UNK N   1      46.797  49.347  60.175  0.00  0.00     0.183 C 
HETATM   23  C   UNK N   1      48.221  49.863  60.430  0.00  0.00     0.204 C 
BRANCH  20  24
HETATM   24  C   UNK N   1      45.035  52.494  61.616  0.00  0.00     0.198 C 
BRANCH  24  25
HETATM   25  O   UNK N   1      44.631  51.804  62.768  0.00  0.00    -0.398 OA
HETATM   26  H   UNK N   1      45.304  51.093  62.931  0.00  0.00     0.209 HD
ENDBRANCH  24  25
ENDBRANCH  20  24
BRANCH  21  27
HETATM   27  O   UNK N   1      44.478  49.771  60.700  0.00  0.00    -0.390 OA
HETATM   28  H   UNK N   1      44.336  50.053  59.759  0.00  0.00     0.210 HD
ENDBRANCH  21  27
BRANCH  22  29
HETATM   29  O   UNK N   1      46.741  47.975  60.466  0.00  0.00    -0.390 OA
HETATM   30  H   UNK N   1      46.928  47.874  61.435  0.00  0.00     0.210 HD
ENDBRANCH  22  29
BRANCH  23  31
HETATM   31  O   UNK N   1      49.104  49.228  59.540  0.00  0.00    -0.388 OA
HETATM   32  H   UNK N   1      49.563  49.941  59.024  0.00  0.00     0.210 HD
ENDBRANCH  23  31
ENDBRANCH  17  18
ENDBRANCH   1  17
TORSDOF 10
ENDMDL
MODEL 4
REMARK VINA RESULT:      -5.6      3.651      4.861
REMARK  10 active torsions:
REMARK  status: ('A' for Active; 'I' for Inactive)
REMARK    1  A    between atoms: C_5  and  O_6 
REMARK    2  A    between atoms: C_5  and  C_12 
REMARK    3  A    between atoms: C_13  and  C_14 
REMARK    4  A    between atoms: C_14  and  O_15 
REMARK    5  A    between atoms: O_15  and  C_16 
REMARK    6  A    between atoms: C_18  and  C_28 
REMARK    7  A    between atoms: C_19  and  O_20 
REMARK    8  A    between atoms: C_22  and  O_23 
REMARK    9  A    between atoms: C_25  and  O_26 
REMARK   10  A    between atoms: C_28  and  O_29 
ROOT
HETATM    1  C   UNK N   1      43.060  47.294  48.667  0.00  0.00     0.143 C 
HETATM    2  C   UNK N   1      42.411  48.415  49.476  0.00  0.00     0.044 C 
ENDROOT
BRANCH   1   3
HETATM    3  C   UNK N   1      42.762  45.975  49.345  0.00  0.00     0.004 C 
HETATM    4  C   UNK N   1      42.056  45.929  50.491  0.00  0.00     0.014 C 
BRANCH   4   5
HETATM    5  C   UNK N   1      41.738  44.631  51.243  0.00  0.00     0.106 C 
HETATM    6  C   UNK N   1      41.309  44.957  52.694  0.00  0.00    -0.042 C 
HETATM    7  C   UNK N   1      40.390  44.210  53.343  0.00  0.00     0.056 C 
HETATM    8  C   UNK N   1      41.949  46.116  53.420  0.00  0.00     0.047 C 
HETATM    9  C   UNK N   1      39.743  43.054  52.695  0.00  0.00     0.150 C 
HETATM   10  O   UNK N   1      38.805  42.496  53.238  0.00  0.00    -0.293 OA
HETATM   11  C   UNK N   1      40.215  42.604  51.343  0.00  0.00     0.095 C 
HETATM   12  C   UNK N   1      40.601  43.827  50.478  0.00  0.00    -0.002 C 
HETATM   13  C   UNK N   1      41.116  43.320  49.111  0.00  0.00     0.019 C 
HETATM   14  C   UNK N   1      39.333  44.689  50.212  0.00  0.00     0.019 C 
BRANCH   5  15
HETATM   15  O   UNK N   1      42.883  43.804  51.309  0.00  0.00    -0.380 OA
HETATM   16  H   UNK N   1      43.661  44.300  50.942  0.00  0.00     0.211 HD
ENDBRANCH   5  15
ENDBRANCH   4   5
ENDBRANCH   1   3
BRANCH   1  17
HETATM   17  O   UNK N   1      42.520  47.337  47.355  0.00  0.00    -0.350 OA
BRANCH  17  18
HETATM   18  C   UNK N   1      41.823  46.151  47.001  0.00  0.00     0.292 C 
HETATM   19  O   UNK N   1      42.432  45.534  45.875  0.00  0.00    -0.348 OA
HETATM   20  C   UNK N   1      41.788  44.305  45.566  0.00  0.00     0.179 C 
HETATM   21  C   UNK N   1      40.349  44.575  45.079  0.00  0.00     0.180 C 
HETATM   22  C   UNK N   1      39.588  45.306  46.203  0.00  0.00     0.183 C 
HETATM   23  C   UNK N   1      40.375  46.551  46.641  0.00  0.00     0.204 C 
BRANCH  20  24
HETATM   24  C   UNK N   1      42.620  43.570  44.506  0.00  0.00     0.198 C 
BRANCH  24  25
HETATM   25  O   UNK N   1      42.539  42.182  44.697  0.00  0.00    -0.398 OA
HETATM   26  H   UNK N   1      42.795  41.757  43.837  0.00  0.00     0.209 HD
ENDBRANCH  24  25
ENDBRANCH  20  24
BRANCH  21  27
HETATM   27  O   UNK N   1      39.715  43.354  44.786  0.00  0.00    -0.390 OA
HETATM   28  H   UNK N   1      40.162  42.978  43.984  0.00  0.00     0.210 HD
ENDBRANCH  21  27
BRANCH  22  29
HETATM   29  O   UNK N   1      38.312  45.695  45.765  0.00  0.00    -0.390 OA
HETATM   30  H   UNK N   1      38.425  46.527  45.236  0.00  0.00     0.210 HD
ENDBRANCH  22  29
BRANCH  23  31
HETATM   31  O   UNK N   1      39.732  47.133  47.746  0.00  0.00    -0.388 OA
HETATM   32  H   UNK N   1      40.032  48.078  47.796  0.00  0.00     0.210 HD
ENDBRANCH  23  31
ENDBRANCH  17  18
ENDBRANCH   1  17
TORSDOF 10
ENDMDL
MODEL 5
REMARK VINA RESULT:      -5.5     13.931     15.662
REMARK  10 active torsions:
REMARK  status: ('A' for Active; 'I' for Inactive)
REMARK    1  A    between atoms: C_5  and  O_6 
REMARK    2  A    between atoms: C_5  and  C_12 
REMARK    3  A    between atoms: C_13  and  C_14 
REMARK    4  A    between atoms: C_14  and  O_15 
REMARK    5  A    between atoms: O_15  and  C_16 
REMARK    6  A    between atoms: C_18  and  C_28 
REMARK    7  A    between atoms: C_19  and  O_20 
REMARK    8  A    between atoms: C_22  and  O_23 
REMARK    9  A    between atoms: C_25  and  O_26 
REMARK   10  A    between atoms: C_28  and  O_29 
ROOT
HETATM    1  C   UNK N   1      29.023  41.632  54.738  0.00  0.00     0.143 C 
HETATM    2  C   UNK N   1      30.027  40.481  54.702  0.00  0.00     0.044 C 
ENDROOT
BRANCH   1   3
HETATM    3  C   UNK N   1      29.020  42.227  56.129  0.00  0.00     0.004 C 
HETATM    4  C   UNK N   1      30.061  42.041  56.964  0.00  0.00     0.014 C 
BRANCH   4   5
HETATM    5  C   UNK N   1      30.115  42.595  58.392  0.00  0.00     0.106 C 
HETATM    6  C   UNK N   1      30.258  41.431  59.402  0.00  0.00    -0.042 C 
HETATM    7  C   UNK N   1      30.962  41.571  60.546  0.00  0.00     0.056 C 
HETATM    8  C   UNK N   1      29.574  40.114  59.126  0.00  0.00     0.047 C 
HETATM    9  C   UNK N   1      31.638  42.838  60.881  0.00  0.00     0.150 C 
HETATM   10  O   UNK N   1      32.398  42.891  61.834  0.00  0.00    -0.293 OA
HETATM   11  C   UNK N   1      31.423  44.044  60.014  0.00  0.00     0.095 C 
HETATM   12  C   UNK N   1      31.320  43.622  58.529  0.00  0.00    -0.002 C 
HETATM   13  C   UNK N   1      31.062  44.885  57.676  0.00  0.00     0.019 C 
HETATM   14  C   UNK N   1      32.679  43.016  58.073  0.00  0.00     0.019 C 
BRANCH   5  15
HETATM   15  O   UNK N   1      28.921  43.286  58.701  0.00  0.00    -0.380 OA
HETATM   16  H   UNK N   1      28.388  43.396  57.870  0.00  0.00     0.211 HD
ENDBRANCH   5  15
ENDBRANCH   4   5
ENDBRANCH   1   3
BRANCH   1  17
HETATM   17  O   UNK N   1      29.421  42.585  53.766  0.00  0.00    -0.350 OA
BRANCH  17  18
HETATM   18  C   UNK N   1      28.363  42.973  52.900  0.00  0.00     0.292 C 
HETATM   19  O   UNK N   1      27.127  42.988  53.601  0.00  0.00    -0.348 OA
HETATM   20  C   UNK N   1      26.079  43.452  52.761  0.00  0.00     0.179 C 
HETATM   21  C   UNK N   1      25.824  42.435  51.629  0.00  0.00     0.180 C 
HETATM   22  C   UNK N   1      27.126  42.279  50.819  0.00  0.00     0.183 C 
HETATM   23  C   UNK N   1      28.289  41.932  51.760  0.00  0.00     0.204 C 
BRANCH  20  24
HETATM   24  C   UNK N   1      24.827  43.675  53.620  0.00  0.00     0.198 C 
BRANCH  24  25
HETATM   25  O   UNK N   1      24.170  44.853  53.231  0.00  0.00    -0.398 OA
HETATM   26  H   UNK N   1      24.554  45.590  53.774  0.00  0.00     0.209 HD
ENDBRANCH  24  25
ENDBRANCH  20  24
BRANCH  21  27
HETATM   27  O   UNK N   1      24.794  42.906  50.797  0.00  0.00    -0.390 OA
HETATM   28  H   UNK N   1      23.973  42.403  51.034  0.00  0.00     0.210 HD
ENDBRANCH  21  27
BRANCH  22  29
HETATM   29  O   UNK N   1      26.991  41.266  49.856  0.00  0.00    -0.390 OA
HETATM   30  H   UNK N   1      27.907  40.997  49.584  0.00  0.00     0.210 HD
ENDBRANCH  22  29
BRANCH  23  31
HETATM   31  O   UNK N   1      29.485  41.917  51.024  0.00  0.00    -0.388 OA
HETATM   32  H   UNK N   1      29.749  42.862  50.873  0.00  0.00     0.210 HD
ENDBRANCH  23  31
ENDBRANCH  17  18
ENDBRANCH   1  17
TORSDOF 10
ENDMDL
MODEL 6
REMARK VINA RESULT:      -5.4     15.153     16.541
REMARK  10 active torsions:
REMARK  status: ('A' for Active; 'I' for Inactive)
REMARK    1  A    between atoms: C_5  and  O_6 
REMARK    2  A    between atoms: C_5  and  C_12 
REMARK    3  A    between atoms: C_13  and  C_14 
REMARK    4  A    between atoms: C_14  and  O_15 
REMARK    5  A    between atoms: O_15  and  C_16 
REMARK    6  A    between atoms: C_18  and  C_28 
REMARK    7  A    between atoms: C_19  and  O_20 
REMARK    8  A    between atoms: C_22  and  O_23 
REMARK    9  A    between atoms: C_25  and  O_26 
REMARK   10  A    between atoms: C_28  and  O_29 
ROOT
HETATM    1  C   UNK N   1      50.310  53.766  58.716  0.00  0.00     0.143 C 
HETATM    2  C   UNK N   1      50.925  55.154  58.887  0.00  0.00     0.044 C 
ENDROOT
BRANCH   1   3
HETATM    3  C   UNK N   1      49.536  53.423  59.969  0.00  0.00     0.004 C 
HETATM    4  C   UNK N   1      48.648  52.411  59.981  0.00  0.00     0.014 C 
BRANCH   4   5
HETATM    5  C   UNK N   1      47.814  52.024  61.207  0.00  0.00     0.106 C 
HETATM    6  C   UNK N   1      46.318  52.317  60.939  0.00  0.00    -0.042 C 
HETATM    7  C   UNK N   1      45.342  51.539  61.457  0.00  0.00     0.056 C 
HETATM    8  C   UNK N   1      45.929  53.514  60.106  0.00  0.00     0.047 C 
HETATM    9  C   UNK N   1      45.658  50.367  62.294  0.00  0.00     0.150 C 
HETATM   10  O   UNK N   1      44.774  49.591  62.615  0.00  0.00    -0.293 OA
HETATM   11  C   UNK N   1      47.079  50.111  62.704  0.00  0.00     0.095 C 
HETATM   12  C   UNK N   1      48.042  50.490  61.555  0.00  0.00    -0.002 C 
HETATM   13  C   UNK N   1      49.494  50.248  62.031  0.00  0.00     0.019 C 
HETATM   14  C   UNK N   1      47.784  49.555  60.339  0.00  0.00     0.019 C 
BRANCH   5  15
HETATM   15  O   UNK N   1      48.205  52.785  62.332  0.00  0.00    -0.380 OA
HETATM   16  H   UNK N   1      48.816  52.240  62.894  0.00  0.00     0.211 HD
ENDBRANCH   5  15
ENDBRANCH   4   5
ENDBRANCH   1   3
BRANCH   1  17
HETATM   17  O   UNK N   1      49.466  53.803  57.577  0.00  0.00    -0.350 OA
BRANCH  17  18
HETATM   18  C   UNK N   1      49.971  54.629  56.537  0.00  0.00     0.292 C 
HETATM   19  O   UNK N   1      49.050  55.668  56.234  0.00  0.00    -0.348 OA
HETATM   20  C   UNK N   1      49.586  56.543  55.252  0.00  0.00     0.179 C 
HETATM   21  C   UNK N   1      49.725  55.800  53.907  0.00  0.00     0.180 C 
HETATM   22  C   UNK N   1      50.665  54.596  54.115  0.00  0.00     0.183 C 
HETATM   23  C   UNK N   1      50.163  53.740  55.288  0.00  0.00     0.204 C 
BRANCH  20  24
HETATM   24  C   UNK N   1      48.667  57.767  55.134  0.00  0.00     0.198 C 
BRANCH  24  25
HETATM   25  O   UNK N   1      47.608  57.501  54.254  0.00  0.00    -0.398 OA
HETATM   26  H   UNK N   1      47.737  58.086  53.462  0.00  0.00     0.209 HD
ENDBRANCH  24  25
ENDBRANCH  20  24
BRANCH  21  27
HETATM   27  O   UNK N   1      50.266  56.669  52.943  0.00  0.00    -0.390 OA
HETATM   28  H   UNK N   1      50.046  57.594  53.227  0.00  0.00     0.210 HD
ENDBRANCH  21  27
BRANCH  22  29
HETATM   29  O   UNK N   1      50.723  53.807  52.956  0.00  0.00    -0.390 OA
HETATM   30  H   UNK N   1      51.589  53.322  52.976  0.00  0.00     0.210 HD
ENDBRANCH  22  29
BRANCH  23  31
HETATM   31  O   UNK N   1      51.097  52.721  55.543  0.00  0.00    -0.388 OA
HETATM   32  H   UNK N   1      51.979  53.045  55.224  0.00  0.00     0.210 HD
ENDBRANCH  23  31
ENDBRANCH  17  18
ENDBRANCH   1  17
TORSDOF 10
ENDMDL
MODEL 7
REMARK VINA RESULT:      -5.2     15.256     17.215
REMARK  10 active torsions:
REMARK  status: ('A' for Active; 'I' for Inactive)
REMARK    1  A    between atoms: C_5  and  O_6 
REMARK    2  A    between atoms: C_5  and  C_12 
REMARK    3  A    between atoms: C_13  and  C_14 
REMARK    4  A    between atoms: C_14  and  O_15 
REMARK    5  A    between atoms: O_15  and  C_16 
REMARK    6  A    between atoms: C_18  and  C_28 
REMARK    7  A    between atoms: C_19  and  O_20 
REMARK    8  A    between atoms: C_22  and  O_23 
REMARK    9  A    between atoms: C_25  and  O_26 
REMARK   10  A    between atoms: C_28  and  O_29 
ROOT
HETATM    1  C   UNK N   1      50.230  54.005  58.707  0.00  0.00     0.143 C 
HETATM    2  C   UNK N   1      51.561  54.695  58.414  0.00  0.00     0.044 C 
ENDROOT
BRANCH   1   3
HETATM    3  C   UNK N   1      49.426  54.883  59.639  0.00  0.00     0.004 C 
HETATM    4  C   UNK N   1      48.080  54.892  59.596  0.00  0.00     0.014 C 
BRANCH   4   5
HETATM    5  C   UNK N   1      47.204  55.773  60.494  0.00  0.00     0.106 C 
HETATM    6  C   UNK N   1      46.270  56.647  59.623  0.00  0.00    -0.042 C 
HETATM    7  C   UNK N   1      45.027  56.978  60.035  0.00  0.00     0.056 C 
HETATM    8  C   UNK N   1      46.761  57.171  58.296  0.00  0.00     0.047 C 
HETATM    9  C   UNK N   1      44.497  56.512  61.329  0.00  0.00     0.150 C 
HETATM   10  O   UNK N   1      43.322  56.687  61.606  0.00  0.00    -0.293 OA
HETATM   11  C   UNK N   1      45.400  55.779  62.279  0.00  0.00     0.095 C 
HETATM   12  C   UNK N   1      46.368  54.863  61.494  0.00  0.00    -0.002 C 
HETATM   13  C   UNK N   1      47.303  54.157  62.503  0.00  0.00     0.019 C 
HETATM   14  C   UNK N   1      45.550  53.761  60.760  0.00  0.00     0.019 C 
BRANCH   5  15
HETATM   15  O   UNK N   1      48.006  56.642  61.269  0.00  0.00    -0.380 OA
HETATM   16  H   UNK N   1      48.945  56.582  60.951  0.00  0.00     0.211 HD
ENDBRANCH   5  15
ENDBRANCH   4   5
ENDBRANCH   1   3
BRANCH   1  17
HETATM   17  O   UNK N   1      49.561  53.809  57.471  0.00  0.00    -0.350 OA
BRANCH  17  18
HETATM   18  C   UNK N   1      50.067  54.631  56.429  0.00  0.00     0.292 C 
HETATM   19  O   UNK N   1      49.193  55.725  56.188  0.00  0.00    -0.348 OA
HETATM   20  C   UNK N   1      49.734  56.593  55.203  0.00  0.00     0.179 C 
HETATM   21  C   UNK N   1      49.777  55.876  53.837  0.00  0.00     0.180 C 
HETATM   22  C   UNK N   1      50.658  54.619  53.980  0.00  0.00     0.183 C 
HETATM   23  C   UNK N   1      50.160  53.763  55.154  0.00  0.00     0.204 C 
BRANCH  20  24
HETATM   24  C   UNK N   1      48.879  57.867  55.150  0.00  0.00     0.198 C 
BRANCH  24  25
HETATM   25  O   UNK N   1      47.844  57.724  54.214  0.00  0.00    -0.398 OA
HETATM   26  H   UNK N   1      48.256  57.383  53.377  0.00  0.00     0.209 HD
ENDBRANCH  24  25
ENDBRANCH  20  24
BRANCH  21  27
HETATM   27  O   UNK N   1      50.324  56.738  52.870  0.00  0.00    -0.390 OA
HETATM   28  H   UNK N   1      51.009  57.292  53.326  0.00  0.00     0.210 HD
ENDBRANCH  21  27
BRANCH  22  29
HETATM   29  O   UNK N   1      50.626  53.856  52.802  0.00  0.00    -0.390 OA
HETATM   30  H   UNK N   1      50.225  52.978  53.034  0.00  0.00     0.210 HD
ENDBRANCH  22  29
BRANCH  23  31
HETATM   31  O   UNK N   1      51.046  52.690  55.347  0.00  0.00    -0.388 OA
HETATM   32  H   UNK N   1      51.162  52.244  54.468  0.00  0.00     0.210 HD
ENDBRANCH  23  31
ENDBRANCH  17  18
ENDBRANCH   1  17
TORSDOF 10
ENDMDL
MODEL 8
REMARK VINA RESULT:      -5.2     13.997     15.862
REMARK  10 active torsions:
REMARK  status: ('A' for Active; 'I' for Inactive)
REMARK    1  A    between atoms: C_5  and  O_6 
REMARK    2  A    between atoms: C_5  and  C_12 
REMARK    3  A    between atoms: C_13  and  C_14 
REMARK    4  A    between atoms: C_14  and  O_15 
REMARK    5  A    between atoms: O_15  and  C_16 
REMARK    6  A    between atoms: C_18  and  C_28 
REMARK    7  A    between atoms: C_19  and  O_20 
REMARK    8  A    between atoms: C_22  and  O_23 
REMARK    9  A    between atoms: C_25  and  O_26 
REMARK   10  A    between atoms: C_28  and  O_29 
ROOT
HETATM    1  C   UNK N   1      29.514  41.656  55.294  0.00  0.00     0.143 C 
HETATM    2  C   UNK N   1      29.717  40.146  55.192  0.00  0.00     0.044 C 
ENDROOT
BRANCH   1   3
HETATM    3  C   UNK N   1      30.462  42.200  56.339  0.00  0.00     0.004 C 
HETATM    4  C   UNK N   1      30.008  42.629  57.532  0.00  0.00     0.014 C 
BRANCH   4   5
HETATM    5  C   UNK N   1      30.908  43.212  58.627  0.00  0.00     0.106 C 
HETATM    6  C   UNK N   1      30.563  44.704  58.851  0.00  0.00    -0.042 C 
HETATM    7  C   UNK N   1      30.653  45.273  60.073  0.00  0.00     0.056 C 
HETATM    8  C   UNK N   1      30.146  45.559  57.679  0.00  0.00     0.047 C 
HETATM    9  C   UNK N   1      31.073  44.496  61.253  0.00  0.00     0.150 C 
HETATM   10  O   UNK N   1      30.991  44.986  62.367  0.00  0.00    -0.293 OA
HETATM   11  C   UNK N   1      31.552  43.084  61.078  0.00  0.00     0.095 C 
HETATM   12  C   UNK N   1      30.738  42.378  59.969  0.00  0.00    -0.002 C 
HETATM   13  C   UNK N   1      31.287  40.943  59.794  0.00  0.00     0.019 C 
HETATM   14  C   UNK N   1      29.253  42.261  60.418  0.00  0.00     0.019 C 
BRANCH   5  15
HETATM   15  O   UNK N   1      32.267  43.139  58.242  0.00  0.00    -0.380 OA
HETATM   16  H   UNK N   1      32.342  43.373  57.279  0.00  0.00     0.211 HD
ENDBRANCH   5  15
ENDBRANCH   4   5
ENDBRANCH   1   3
BRANCH   1  17
HETATM   17  O   UNK N   1      29.771  42.216  54.016  0.00  0.00    -0.350 OA
BRANCH  17  18
HETATM   18  C   UNK N   1      28.586  42.565  53.313  0.00  0.00     0.292 C 
HETATM   19  O   UNK N   1      27.436  42.177  54.052  0.00  0.00    -0.348 OA
HETATM   20  C   UNK N   1      26.250  42.596  53.392  0.00  0.00     0.179 C 
HETATM   21  C   UNK N   1      26.087  41.826  52.065  0.00  0.00     0.180 C 
HETATM   22  C   UNK N   1      27.318  42.117  51.184  0.00  0.00     0.183 C 
HETATM   23  C   UNK N   1      28.604  41.810  51.966  0.00  0.00     0.204 C 
BRANCH  20  24
HETATM   24  C   UNK N   1      25.060  42.368  54.333  0.00  0.00     0.198 C 
BRANCH  24  25
HETATM   25  O   UNK N   1      24.466  41.122  54.079  0.00  0.00    -0.398 OA
HETATM   26  H   UNK N   1      25.097  40.429  54.408  0.00  0.00     0.209 HD
ENDBRANCH  24  25
ENDBRANCH  20  24
BRANCH  21  27
HETATM   27  O   UNK N   1      24.917  42.253  51.413  0.00  0.00    -0.390 OA
HETATM   28  H   UNK N   1      24.351  42.702  52.093  0.00  0.00     0.210 HD
ENDBRANCH  21  27
BRANCH  22  29
HETATM   29  O   UNK N   1      27.287  41.336  50.017  0.00  0.00    -0.390 OA
HETATM   30  H   UNK N   1      26.501  41.632  49.489  0.00  0.00     0.210 HD
ENDBRANCH  22  29
BRANCH  23  31
HETATM   31  O   UNK N   1      29.712  42.198  51.194  0.00  0.00    -0.388 OA
HETATM   32  H   UNK N   1      29.730  41.614  50.392  0.00  0.00     0.210 HD
ENDBRANCH  23  31
ENDBRANCH  17  18
ENDBRANCH   1  17
TORSDOF 10
ENDMDL
MODEL 9
REMARK VINA RESULT:      -5.1     15.327     17.979
REMARK  10 active torsions:
REMARK  status: ('A' for Active; 'I' for Inactive)
REMARK    1  A    between atoms: C_5  and  O_6 
REMARK    2  A    between atoms: C_5  and  C_12 
REMARK    3  A    between atoms: C_13  and  C_14 
REMARK    4  A    between atoms: C_14  and  O_15 
REMARK    5  A    between atoms: O_15  and  C_16 
REMARK    6  A    between atoms: C_18  and  C_28 
REMARK    7  A    between atoms: C_19  and  O_20 
REMARK    8  A    between atoms: C_22  and  O_23 
REMARK    9  A    between atoms: C_25  and  O_26 
REMARK   10  A    between atoms: C_28  and  O_29 
ROOT
HETATM    1  C   UNK N   1      49.524  52.482  61.088  0.00  0.00     0.143 C 
HETATM    2  C   UNK N   1      50.444  52.383  62.304  0.00  0.00     0.044 C 
ENDROOT
BRANCH   1   3
HETATM    3  C   UNK N   1      50.170  53.394  60.069  0.00  0.00     0.004 C 
HETATM    4  C   UNK N   1      49.498  53.792  58.972  0.00  0.00     0.014 C 
BRANCH   4   5
HETATM    5  C   UNK N   1      50.097  54.696  57.888  0.00  0.00     0.106 C 
HETATM    6  C   UNK N   1      50.223  53.912  56.560  0.00  0.00    -0.042 C 
HETATM    7  C   UNK N   1      50.065  54.520  55.364  0.00  0.00     0.056 C 
HETATM    8  C   UNK N   1      50.560  52.441  56.590  0.00  0.00     0.047 C 
HETATM    9  C   UNK N   1      49.753  55.957  55.268  0.00  0.00     0.150 C 
HETATM   10  O   UNK N   1      49.456  56.447  54.191  0.00  0.00    -0.293 OA
HETATM   11  C   UNK N   1      49.755  56.800  56.510  0.00  0.00     0.095 C 
HETATM   12  C   UNK N   1      49.194  55.991  57.704  0.00  0.00    -0.002 C 
HETATM   13  C   UNK N   1      49.249  56.880  58.969  0.00  0.00     0.019 C 
HETATM   14  C   UNK N   1      47.701  55.648  57.435  0.00  0.00     0.019 C 
BRANCH   5  15
HETATM   15  O   UNK N   1      51.393  55.122  58.260  0.00  0.00    -0.380 OA
HETATM   16  H   UNK N   1      51.318  55.765  59.013  0.00  0.00     0.211 HD
ENDBRANCH   5  15
ENDBRANCH   4   5
ENDBRANCH   1   3
BRANCH   1  17
HETATM   17  O   UNK N   1      49.343  51.172  60.573  0.00  0.00    -0.350 OA
BRANCH  17  18
HETATM   18  C   UNK N   1      47.982  50.861  60.309  0.00  0.00     0.292 C 
HETATM   19  O   UNK N   1      47.126  51.620  61.151  0.00  0.00    -0.348 OA
HETATM   20  C   UNK N   1      45.763  51.373  60.835  0.00  0.00     0.179 C 
HETATM   21  C   UNK N   1      45.398  49.916  61.190  0.00  0.00     0.180 C 
HETATM   22  C   UNK N   1      46.311  48.978  60.376  0.00  0.00     0.183 C 
HETATM   23  C   UNK N   1      47.782  49.357  60.602  0.00  0.00     0.204 C 
BRANCH  20  24
HETATM   24  C   UNK N   1      44.893  52.380  61.599  0.00  0.00     0.198 C 
BRANCH  24  25
HETATM   25  O   UNK N   1      44.283  51.763  62.701  0.00  0.00    -0.398 OA
HETATM   26  H   UNK N   1      44.219  50.795  62.492  0.00  0.00     0.209 HD
ENDBRANCH  24  25
ENDBRANCH  20  24
BRANCH  21  27
HETATM   27  O   UNK N   1      44.051  49.676  60.864  0.00  0.00    -0.390 OA
HETATM   28  H   UNK N   1      43.838  48.754  61.163  0.00  0.00     0.210 HD
ENDBRANCH  21  27
BRANCH  22  29
HETATM   29  O   UNK N   1      46.113  47.641  60.758  0.00  0.00    -0.390 OA
HETATM   30  H   UNK N   1      46.650  47.079  60.141  0.00  0.00     0.210 HD
ENDBRANCH  22  29
BRANCH  23  31
HETATM   31  O   UNK N   1      48.591  48.576  59.759  0.00  0.00    -0.388 OA
HETATM   32  H   UNK N   1      49.062  49.198  59.146  0.00  0.00     0.210 HD
ENDBRANCH  23  31
ENDBRANCH  17  18
ENDBRANCH   1  17
TORSDOF 10
ENDMDL
