MODEL 1
REMARK VINA RESULT:      -6.6      0.000      0.000
REMARK  8 active torsions:
REMARK  status: ('A' for Active; 'I' for Inactive)
REMARK    1  A    between atoms: C_6  and  O_7 
REMARK    2  A    between atoms: O_7  and  C_8 
REMARK    3  A    between atoms: C_10  and  C_20 
REMARK    4  A    between atoms: C_11  and  O_12 
REMARK    5  A    between atoms: C_14  and  O_15 
REMARK    6  A    between atoms: C_17  and  O_18 
REMARK    7  A    between atoms: C_20  and  O_21 
REMARK    8  A    between atoms: C_28  and  O_29 
ROOT
HETATM    1  O   UNK N   1      32.695  48.595  42.713  0.00  0.00    -0.265 OA
HETATM    2  C   UNK N   1      32.185  49.665  42.423  0.00  0.00     0.263 C 
HETATM    3  O   UNK N   1      32.505  50.797  43.051  0.00  0.00    -0.315 OA
HETATM    4  C   UNK N   1      31.995  51.899  42.408  0.00  0.00     0.144 C 
HETATM    5  C   UNK N   1      30.869  51.336  41.488  0.00  0.00     0.058 C 
HETATM    6  C   UNK N   1      30.635  52.154  40.171  0.00  0.00     0.136 C 
HETATM    7  C   UNK N   1      30.220  53.646  40.386  0.00  0.00     0.066 C 
HETATM    8  C   UNK N   1      30.934  54.420  41.469  0.00  0.00    -0.082 C 
HETATM    9  C   UNK N   1      30.601  54.030  42.900  0.00  0.00     0.023 C 
HETATM   10  C   UNK N   1      31.550  52.964  43.439  0.00  0.00     0.030 C 
HETATM   11  C   UNK N   1      32.716  53.816  43.965  0.00  0.00     0.017 C 
HETATM   12  C   UNK N   1      32.004  54.963  44.692  0.00  0.00     0.123 C 
HETATM   13  C   UNK N   1      30.680  55.166  43.936  0.00  0.00     0.041 C 
HETATM   14  C   UNK N   1      33.712  53.068  44.857  0.00  0.00     0.013 C 
HETATM   15  C   UNK N   1      31.731  55.459  41.149  0.00  0.00     0.015 C 
HETATM   16  C   UNK N   1      31.342  49.880  41.221  0.00  0.00     0.090 C 
HETATM   17  C   UNK N   1      30.195  48.869  41.109  0.00  0.00     0.021 C 
ENDROOT
BRANCH   6  18
HETATM   18  O   UNK N   1      29.663  51.450  39.393  0.00  0.00    -0.352 OA
BRANCH  18  19
HETATM   19  C   UNK N   1      28.333  51.928  39.545  0.00  0.00     0.292 C 
HETATM   20  O   UNK N   1      27.558  50.918  40.166  0.00  0.00    -0.348 OA
HETATM   21  C   UNK N   1      26.261  51.380  40.474  0.00  0.00     0.179 C 
HETATM   22  C   UNK N   1      25.482  51.536  39.157  0.00  0.00     0.180 C 
HETATM   23  C   UNK N   1      26.235  52.568  38.286  0.00  0.00     0.183 C 
HETATM   24  C   UNK N   1      27.728  52.190  38.145  0.00  0.00     0.204 C 
BRANCH  21  25
HETATM   25  C   UNK N   1      25.620  50.382  41.445  0.00  0.00     0.198 C 
BRANCH  25  26
HETATM   26  O   UNK N   1      25.034  49.308  40.759  0.00  0.00    -0.398 OA
HETATM   27  H   UNK N   1      25.480  48.482  41.086  0.00  0.00     0.209 HD
ENDBRANCH  25  26
ENDBRANCH  21  25
BRANCH  22  28
HETATM   28  O   UNK N   1      24.175  51.977  39.418  0.00  0.00    -0.390 OA
HETATM   29  H   UNK N   1      23.708  51.233  39.880  0.00  0.00     0.210 HD
ENDBRANCH  22  28
BRANCH  23  30
HETATM   30  O   UNK N   1      25.628  52.706  37.024  0.00  0.00    -0.390 OA
HETATM   31  H   UNK N   1      24.848  52.090  37.000  0.00  0.00     0.210 HD
ENDBRANCH  23  30
BRANCH  24  32
HETATM   32  O   UNK N   1      28.406  53.232  37.492  0.00  0.00    -0.388 OA
HETATM   33  H   UNK N   1      28.052  54.083  37.859  0.00  0.00     0.210 HD
ENDBRANCH  24  32
ENDBRANCH  18  19
ENDBRANCH   6  18
BRANCH  12  34
HETATM   34  O   UNK N   1      32.770  56.138  44.717  0.00  0.00    -0.395 OA
HETATM   35  H   UNK N   1      33.679  55.879  45.018  0.00  0.00     0.210 HD
ENDBRANCH  12  34
TORSDOF 8
ENDMDL
MODEL 2
REMARK VINA RESULT:      -5.2      9.613     13.413
REMARK  8 active torsions:
REMARK  status: ('A' for Active; 'I' for Inactive)
REMARK    1  A    between atoms: C_6  and  O_7 
REMARK    2  A    between atoms: O_7  and  C_8 
REMARK    3  A    between atoms: C_10  and  C_20 
REMARK    4  A    between atoms: C_11  and  O_12 
REMARK    5  A    between atoms: C_14  and  O_15 
REMARK    6  A    between atoms: C_17  and  O_18 
REMARK    7  A    between atoms: C_20  and  O_21 
REMARK    8  A    between atoms: C_28  and  O_29 
ROOT
HETATM    1  O   UNK N   1      44.222  48.911  48.563  0.00  0.00    -0.265 OA
HETATM    2  C   UNK N   1      43.279  48.185  48.293  0.00  0.00     0.263 C 
HETATM    3  O   UNK N   1      42.783  47.311  49.171  0.00  0.00    -0.315 OA
HETATM    4  C   UNK N   1      41.590  46.780  48.742  0.00  0.00     0.144 C 
HETATM    5  C   UNK N   1      41.558  47.063  47.209  0.00  0.00     0.058 C 
HETATM    6  C   UNK N   1      40.120  47.255  46.614  0.00  0.00     0.136 C 
HETATM    7  C   UNK N   1      39.168  46.026  46.778  0.00  0.00     0.066 C 
HETATM    8  C   UNK N   1      39.190  45.299  48.103  0.00  0.00    -0.082 C 
HETATM    9  C   UNK N   1      40.438  44.482  48.396  0.00  0.00     0.023 C 
HETATM   10  C   UNK N   1      41.488  45.291  49.152  0.00  0.00     0.030 C 
HETATM   11  C   UNK N   1      41.045  45.099  50.611  0.00  0.00     0.017 C 
HETATM   12  C   UNK N   1      40.715  43.602  50.677  0.00  0.00     0.123 C 
HETATM   13  C   UNK N   1      40.227  43.230  49.266  0.00  0.00     0.041 C 
HETATM   14  C   UNK N   1      42.072  45.532  51.661  0.00  0.00     0.013 C 
HETATM   15  C   UNK N   1      38.106  45.310  48.903  0.00  0.00     0.015 C 
HETATM   16  C   UNK N   1      42.443  48.334  47.077  0.00  0.00     0.090 C 
HETATM   17  C   UNK N   1      43.269  48.380  45.787  0.00  0.00     0.021 C 
ENDROOT
BRANCH   6  18
HETATM   18  O   UNK N   1      40.268  47.617  45.238  0.00  0.00    -0.352 OA
BRANCH  18  19
HETATM   19  C   UNK N   1      39.271  48.509  44.756  0.00  0.00     0.292 C 
HETATM   20  O   UNK N   1      38.376  47.784  43.933  0.00  0.00    -0.348 OA
HETATM   21  C   UNK N   1      37.282  48.582  43.535  0.00  0.00     0.179 C 
HETATM   22  C   UNK N   1      37.789  49.620  42.520  0.00  0.00     0.180 C 
HETATM   23  C   UNK N   1      38.861  50.481  43.226  0.00  0.00     0.183 C 
HETATM   24  C   UNK N   1      39.945  49.591  43.878  0.00  0.00     0.204 C 
BRANCH  21  25
HETATM   25  C   UNK N   1      36.200  47.654  42.967  0.00  0.00     0.198 C 
BRANCH  25  26
HETATM   26  O   UNK N   1      34.922  48.214  43.111  0.00  0.00    -0.398 OA
HETATM   27  H   UNK N   1      34.627  48.490  42.203  0.00  0.00     0.209 HD
ENDBRANCH  25  26
ENDBRANCH  21  25
BRANCH  22  28
HETATM   28  O   UNK N   1      36.725  50.426  42.082  0.00  0.00    -0.390 OA
HETATM   29  H   UNK N   1      35.891  49.915  42.252  0.00  0.00     0.210 HD
ENDBRANCH  22  28
BRANCH  23  30
HETATM   30  O   UNK N   1      39.436  51.406  42.336  0.00  0.00    -0.390 OA
HETATM   31  H   UNK N   1      39.236  52.316  42.681  0.00  0.00     0.210 HD
ENDBRANCH  23  30
BRANCH  24  32
HETATM   32  O   UNK N   1      40.802  50.399  44.645  0.00  0.00    -0.388 OA
HETATM   33  H   UNK N   1      41.439  50.825  44.016  0.00  0.00     0.210 HD
ENDBRANCH  24  32
ENDBRANCH  18  19
ENDBRANCH   6  18
BRANCH  12  34
HETATM   34  O   UNK N   1      39.751  43.308  51.652  0.00  0.00    -0.395 OA
HETATM   35  H   UNK N   1      39.689  42.319  51.701  0.00  0.00     0.210 HD
ENDBRANCH  12  34
TORSDOF 8
ENDMDL
MODEL 3
REMARK VINA RESULT:      -5.1     23.992     25.572
REMARK  8 active torsions:
REMARK  status: ('A' for Active; 'I' for Inactive)
REMARK    1  A    between atoms: C_6  and  O_7 
REMARK    2  A    between atoms: O_7  and  C_8 
REMARK    3  A    between atoms: C_10  and  C_20 
REMARK    4  A    between atoms: C_11  and  O_12 
REMARK    5  A    between atoms: C_14  and  O_15 
REMARK    6  A    between atoms: C_17  and  O_18 
REMARK    7  A    between atoms: C_20  and  O_21 
REMARK    8  A    between atoms: C_28  and  O_29 
ROOT
HETATM    1  O   UNK N   1      44.551  59.822  57.733  0.00  0.00    -0.265 OA
HETATM    2  C   UNK N   1      45.188  58.891  58.200  0.00  0.00     0.263 C 
HETATM    3  O   UNK N   1      44.758  58.194  59.253  0.00  0.00    -0.315 OA
HETATM    4  C   UNK N   1      45.506  57.059  59.453  0.00  0.00     0.144 C 
HETATM    5  C   UNK N   1      46.825  57.308  58.661  0.00  0.00     0.058 C 
HETATM    6  C   UNK N   1      47.502  56.010  58.100  0.00  0.00     0.136 C 
HETATM    7  C   UNK N   1      47.919  54.962  59.184  0.00  0.00     0.066 C 
HETATM    8  C   UNK N   1      46.952  54.708  60.317  0.00  0.00    -0.082 C 
HETATM    9  C   UNK N   1      46.803  55.830  61.332  0.00  0.00     0.023 C 
HETATM   10  C   UNK N   1      45.673  56.787  60.968  0.00  0.00     0.030 C 
HETATM   11  C   UNK N   1      44.455  56.089  61.591  0.00  0.00     0.017 C 
HETATM   12  C   UNK N   1      44.973  55.652  62.967  0.00  0.00     0.123 C 
HETATM   13  C   UNK N   1      46.476  55.388  62.770  0.00  0.00     0.041 C 
HETATM   14  C   UNK N   1      43.189  56.949  61.675  0.00  0.00     0.013 C 
HETATM   15  C   UNK N   1      46.356  53.507  60.445  0.00  0.00     0.015 C 
HETATM   16  C   UNK N   1      46.372  58.287  57.542  0.00  0.00     0.090 C 
HETATM   17  C   UNK N   1      47.435  59.322  57.161  0.00  0.00     0.021 C 
ENDROOT
BRANCH   6  18
HETATM   18  O   UNK N   1      48.624  56.415  57.310  0.00  0.00    -0.352 OA
BRANCH  18  19
HETATM   19  C   UNK N   1      48.938  55.531  56.242  0.00  0.00     0.292 C 
HETATM   20  O   UNK N   1      50.039  54.729  56.630  0.00  0.00    -0.348 OA
HETATM   21  C   UNK N   1      50.313  53.733  55.669  0.00  0.00     0.179 C 
HETATM   22  C   UNK N   1      50.911  54.416  54.427  0.00  0.00     0.180 C 
HETATM   23  C   UNK N   1      49.861  55.415  53.890  0.00  0.00     0.183 C 
HETATM   24  C   UNK N   1      49.373  56.362  55.012  0.00  0.00     0.204 C 
BRANCH  21  25
HETATM   25  C   UNK N   1      51.253  52.702  56.308  0.00  0.00     0.198 C 
BRANCH  25  26
HETATM   26  O   UNK N   1      51.008  51.413  55.813  0.00  0.00    -0.398 OA
HETATM   27  H   UNK N   1      50.056  51.393  55.526  0.00  0.00     0.209 HD
ENDBRANCH  25  26
ENDBRANCH  21  25
BRANCH  22  28
HETATM   28  O   UNK N   1      51.218  53.456  53.449  0.00  0.00    -0.390 OA
HETATM   29  H   UNK N   1      50.513  53.521  52.753  0.00  0.00     0.210 HD
ENDBRANCH  22  28
BRANCH  23  30
HETATM   30  O   UNK N   1      50.365  56.143  52.798  0.00  0.00    -0.390 OA
HETATM   31  H   UNK N   1      51.122  55.624  52.417  0.00  0.00     0.210 HD
ENDBRANCH  23  30
BRANCH  24  32
HETATM   32  O   UNK N   1      48.307  57.137  54.527  0.00  0.00    -0.388 OA
HETATM   33  H   UNK N   1      47.692  56.521  54.052  0.00  0.00     0.210 HD
ENDBRANCH  24  32
ENDBRANCH  18  19
ENDBRANCH   6  18
BRANCH  12  34
HETATM   34  O   UNK N   1      44.309  54.518  63.455  0.00  0.00    -0.395 OA
HETATM   35  H   UNK N   1      45.011  53.870  63.723  0.00  0.00     0.210 HD
ENDBRANCH  12  34
TORSDOF 8
ENDMDL
MODEL 4
REMARK VINA RESULT:      -5.1     24.559     27.278
REMARK  8 active torsions:
REMARK  status: ('A' for Active; 'I' for Inactive)
REMARK    1  A    between atoms: C_6  and  O_7 
REMARK    2  A    between atoms: O_7  and  C_8 
REMARK    3  A    between atoms: C_10  and  C_20 
REMARK    4  A    between atoms: C_11  and  O_12 
REMARK    5  A    between atoms: C_14  and  O_15 
REMARK    6  A    between atoms: C_17  and  O_18 
REMARK    7  A    between atoms: C_20  and  O_21 
REMARK    8  A    between atoms: C_28  and  O_29 
ROOT
HETATM    1  O   UNK N   1      51.704  53.822  53.225  0.00  0.00    -0.265 OA
HETATM    2  C   UNK N   1      51.362  53.859  54.396  0.00  0.00     0.263 C 
HETATM    3  O   UNK N   1      50.503  54.770  54.855  0.00  0.00    -0.315 OA
HETATM    4  C   UNK N   1      50.084  54.478  56.131  0.00  0.00     0.144 C 
HETATM    5  C   UNK N   1      51.142  53.472  56.677  0.00  0.00     0.058 C 
HETATM    6  C   UNK N   1      50.586  52.446  57.722  0.00  0.00     0.136 C 
HETATM    7  C   UNK N   1      49.986  53.083  59.018  0.00  0.00     0.066 C 
HETATM    8  C   UNK N   1      49.130  54.317  58.857  0.00  0.00    -0.082 C 
HETATM    9  C   UNK N   1      49.861  55.591  58.463  0.00  0.00     0.023 C 
HETATM   10  C   UNK N   1      49.909  55.780  56.950  0.00  0.00     0.030 C 
HETATM   11  C   UNK N   1      48.573  56.487  56.677  0.00  0.00     0.017 C 
HETATM   12  C   UNK N   1      48.498  57.529  57.800  0.00  0.00     0.123 C 
HETATM   13  C   UNK N   1      49.247  56.901  58.988  0.00  0.00     0.041 C 
HETATM   14  C   UNK N   1      48.440  57.103  55.280  0.00  0.00     0.013 C 
HETATM   15  C   UNK N   1      47.817  54.277  59.155  0.00  0.00     0.015 C 
HETATM   16  C   UNK N   1      51.668  52.793  55.380  0.00  0.00     0.090 C 
HETATM   17  C   UNK N   1      53.157  52.437  55.431  0.00  0.00     0.021 C 
ENDROOT
BRANCH   6  18
HETATM   18  O   UNK N   1      51.642  51.532  58.033  0.00  0.00    -0.352 OA
BRANCH  18  19
HETATM   19  C   UNK N   1      51.200  50.259  58.488  0.00  0.00     0.292 C 
HETATM   20  O   UNK N   1      51.797  49.998  59.746  0.00  0.00    -0.348 OA
HETATM   21  C   UNK N   1      51.290  48.812  60.319  0.00  0.00     0.179 C 
HETATM   22  C   UNK N   1      51.838  47.620  59.517  0.00  0.00     0.180 C 
HETATM   23  C   UNK N   1      51.348  47.771  58.058  0.00  0.00     0.183 C 
HETATM   24  C   UNK N   1      51.691  49.173  57.501  0.00  0.00     0.204 C 
BRANCH  21  25
HETATM   25  C   UNK N   1      51.697  48.788  61.798  0.00  0.00     0.198 C 
BRANCH  25  26
HETATM   26  O   UNK N   1      50.974  47.820  62.510  0.00  0.00    -0.398 OA
HETATM   27  H   UNK N   1      50.452  48.305  63.203  0.00  0.00     0.209 HD
ENDBRANCH  25  26
ENDBRANCH  21  25
BRANCH  22  28
HETATM   28  O   UNK N   1      51.373  46.414  60.066  0.00  0.00    -0.390 OA
HETATM   29  H   UNK N   1      52.158  45.964  60.475  0.00  0.00     0.210 HD
ENDBRANCH  22  28
BRANCH  23  30
HETATM   30  O   UNK N   1      51.877  46.759  57.238  0.00  0.00    -0.390 OA
HETATM   31  H   UNK N   1      51.666  45.887  57.666  0.00  0.00     0.210 HD
ENDBRANCH  23  30
BRANCH  24  32
HETATM   32  O   UNK N   1      51.087  49.327  56.243  0.00  0.00    -0.388 OA
HETATM   33  H   UNK N   1      51.268  48.498  55.730  0.00  0.00     0.210 HD
ENDBRANCH  24  32
ENDBRANCH  18  19
ENDBRANCH   6  18
BRANCH  12  34
HETATM   34  O   UNK N   1      47.177  57.859  58.138  0.00  0.00    -0.395 OA
HETATM   35  H   UNK N   1      47.008  57.472  59.036  0.00  0.00     0.210 HD
ENDBRANCH  12  34
TORSDOF 8
ENDMDL
MODEL 5
REMARK VINA RESULT:      -5.0     16.243     18.228
REMARK  8 active torsions:
REMARK  status: ('A' for Active; 'I' for Inactive)
REMARK    1  A    between atoms: C_6  and  O_7 
REMARK    2  A    between atoms: O_7  and  C_8 
REMARK    3  A    between atoms: C_10  and  C_20 
REMARK    4  A    between atoms: C_11  and  O_12 
REMARK    5  A    between atoms: C_14  and  O_15 
REMARK    6  A    between atoms: C_17  and  O_18 
REMARK    7  A    between atoms: C_20  and  O_21 
REMARK    8  A    between atoms: C_28  and  O_29 
ROOT
HETATM    1  O   UNK N   1      28.973  36.775  57.304  0.00  0.00    -0.265 OA
HETATM    2  C   UNK N   1      29.164  37.967  57.119  0.00  0.00     0.263 C 
HETATM    3  O   UNK N   1      29.645  38.765  58.074  0.00  0.00    -0.315 OA
HETATM    4  C   UNK N   1      30.000  39.996  57.579  0.00  0.00     0.144 C 
HETATM    5  C   UNK N   1      29.257  40.104  56.212  0.00  0.00     0.058 C 
HETATM    6  C   UNK N   1      29.995  40.974  55.138  0.00  0.00     0.136 C 
HETATM    7  C   UNK N   1      30.230  42.466  55.545  0.00  0.00     0.066 C 
HETATM    8  C   UNK N   1      30.671  42.741  56.963  0.00  0.00    -0.082 C 
HETATM    9  C   UNK N   1      29.624  42.519  58.043  0.00  0.00     0.023 C 
HETATM   10  C   UNK N   1      29.675  41.104  58.610  0.00  0.00     0.030 C 
HETATM   11  C   UNK N   1      30.745  41.240  59.704  0.00  0.00     0.017 C 
HETATM   12  C   UNK N   1      30.375  42.563  60.385  0.00  0.00     0.123 C 
HETATM   13  C   UNK N   1      29.741  43.426  59.281  0.00  0.00     0.041 C 
HETATM   14  C   UNK N   1      30.822  40.064  60.682  0.00  0.00     0.013 C 
HETATM   15  C   UNK N   1      31.893  43.253  57.208  0.00  0.00     0.015 C 
HETATM   16  C   UNK N   1      29.107  38.616  55.787  0.00  0.00     0.090 C 
HETATM   17  C   UNK N   1      27.805  38.319  55.035  0.00  0.00     0.021 C 
ENDROOT
BRANCH   6  18
HETATM   18  O   UNK N   1      29.251  40.879  53.920  0.00  0.00    -0.352 OA
BRANCH  18  19
HETATM   19  C   UNK N   1      28.559  42.067  53.561  0.00  0.00     0.292 C 
HETATM   20  O   UNK N   1      27.280  42.046  54.168  0.00  0.00    -0.348 OA
HETATM   21  C   UNK N   1      26.595  43.263  53.966  0.00  0.00     0.179 C 
HETATM   22  C   UNK N   1      26.181  43.340  52.487  0.00  0.00     0.180 C 
HETATM   23  C   UNK N   1      27.470  43.296  51.636  0.00  0.00     0.183 C 
HETATM   24  C   UNK N   1      28.350  42.085  52.027  0.00  0.00     0.204 C 
BRANCH  21  25
HETATM   25  C   UNK N   1      25.405  43.303  54.934  0.00  0.00     0.198 C 
BRANCH  25  26
HETATM   26  O   UNK N   1      24.983  44.621  55.168  0.00  0.00    -0.398 OA
HETATM   27  H   UNK N   1      24.922  45.063  54.280  0.00  0.00     0.209 HD
ENDBRANCH  25  26
ENDBRANCH  21  25
BRANCH  22  28
HETATM   28  O   UNK N   1      25.476  44.531  52.245  0.00  0.00    -0.390 OA
HETATM   29  H   UNK N   1      24.517  44.334  52.408  0.00  0.00     0.210 HD
ENDBRANCH  22  28
BRANCH  23  30
HETATM   30  O   UNK N   1      27.171  43.279  50.262  0.00  0.00    -0.390 OA
HETATM   31  H   UNK N   1      27.297  44.203  49.918  0.00  0.00     0.210 HD
ENDBRANCH  23  30
BRANCH  24  32
HETATM   32  O   UNK N   1      29.579  42.175  51.354  0.00  0.00    -0.388 OA
HETATM   33  H   UNK N   1      29.728  41.304  50.902  0.00  0.00     0.210 HD
ENDBRANCH  24  32
ENDBRANCH  18  19
ENDBRANCH   6  18
BRANCH  12  34
HETATM   34  O   UNK N   1      31.485  43.196  60.964  0.00  0.00    -0.395 OA
HETATM   35  H   UNK N   1      32.250  43.045  60.351  0.00  0.00     0.210 HD
ENDBRANCH  12  34
TORSDOF 8
ENDMDL
MODEL 6
REMARK VINA RESULT:      -5.0      1.718      2.066
REMARK  8 active torsions:
REMARK  status: ('A' for Active; 'I' for Inactive)
REMARK    1  A    between atoms: C_6  and  O_7 
REMARK    2  A    between atoms: O_7  and  C_8 
REMARK    3  A    between atoms: C_10  and  C_20 
REMARK    4  A    between atoms: C_11  and  O_12 
REMARK    5  A    between atoms: C_14  and  O_15 
REMARK    6  A    between atoms: C_17  and  O_18 
REMARK    7  A    between atoms: C_20  and  O_21 
REMARK    8  A    between atoms: C_28  and  O_29 
ROOT
HETATM    1  O   UNK N   1      32.379  48.317  42.395  0.00  0.00    -0.265 OA
HETATM    2  C   UNK N   1      31.991  49.469  42.288  0.00  0.00     0.263 C 
HETATM    3  O   UNK N   1      32.472  50.453  43.049  0.00  0.00    -0.315 OA
HETATM    4  C   UNK N   1      32.072  51.688  42.598  0.00  0.00     0.144 C 
HETATM    5  C   UNK N   1      30.848  51.398  41.678  0.00  0.00     0.058 C 
HETATM    6  C   UNK N   1      30.660  52.420  40.504  0.00  0.00     0.136 C 
HETATM    7  C   UNK N   1      30.438  53.903  40.950  0.00  0.00     0.066 C 
HETATM    8  C   UNK N   1      31.286  54.424  42.086  0.00  0.00    -0.082 C 
HETATM    9  C   UNK N   1      30.970  53.869  43.466  0.00  0.00     0.023 C 
HETATM   10  C   UNK N   1      31.805  52.635  43.793  0.00  0.00     0.030 C 
HETATM   11  C   UNK N   1      33.086  53.262  44.362  0.00  0.00     0.017 C 
HETATM   12  C   UNK N   1      32.551  54.364  45.284  0.00  0.00     0.123 C 
HETATM   13  C   UNK N   1      31.230  54.825  44.644  0.00  0.00     0.041 C 
HETATM   14  C   UNK N   1      34.021  52.283  45.080  0.00  0.00     0.013 C 
HETATM   15  C   UNK N   1      32.189  55.400  41.868  0.00  0.00     0.015 C 
HETATM   16  C   UNK N   1      31.130  49.952  41.181  0.00  0.00     0.090 C 
HETATM   17  C   UNK N   1      29.865  49.106  40.997  0.00  0.00     0.021 C 
ENDROOT
BRANCH   6  18
HETATM   18  O   UNK N   1      29.577  51.954  39.695  0.00  0.00    -0.352 OA
BRANCH  18  19
HETATM   19  C   UNK N   1      28.462  52.834  39.643  0.00  0.00     0.292 C 
HETATM   20  O   UNK N   1      28.311  53.446  40.911  0.00  0.00    -0.348 OA
HETATM   21  C   UNK N   1      27.307  54.438  40.887  0.00  0.00     0.179 C 
HETATM   22  C   UNK N   1      25.943  53.736  40.771  0.00  0.00     0.180 C 
HETATM   23  C   UNK N   1      25.941  52.929  39.453  0.00  0.00     0.183 C 
HETATM   24  C   UNK N   1      27.182  52.009  39.365  0.00  0.00     0.204 C 
BRANCH  21  25
HETATM   25  C   UNK N   1      27.448  55.287  42.156  0.00  0.00     0.198 C 
BRANCH  25  26
HETATM   26  O   UNK N   1      26.344  55.121  43.006  0.00  0.00    -0.398 OA
HETATM   27  H   UNK N   1      26.455  54.239  43.450  0.00  0.00     0.209 HD
ENDBRANCH  25  26
ENDBRANCH  21  25
BRANCH  22  28
HETATM   28  O   UNK N   1      24.911  54.688  40.763  0.00  0.00    -0.390 OA
HETATM   29  H   UNK N   1      25.303  55.534  40.422  0.00  0.00     0.210 HD
ENDBRANCH  22  28
BRANCH  23  30
HETATM   30  O   UNK N   1      24.753  52.189  39.312  0.00  0.00    -0.390 OA
HETATM   31  H   UNK N   1      24.448  51.939  40.224  0.00  0.00     0.210 HD
ENDBRANCH  23  30
BRANCH  24  32
HETATM   32  O   UNK N   1      27.229  51.423  38.089  0.00  0.00    -0.388 OA
HETATM   33  H   UNK N   1      26.307  51.444  37.725  0.00  0.00     0.210 HD
ENDBRANCH  24  32
ENDBRANCH  18  19
ENDBRANCH   6  18
BRANCH  12  34
HETATM   34  O   UNK N   1      33.454  55.428  45.428  0.00  0.00    -0.395 OA
HETATM   35  H   UNK N   1      33.045  56.211  44.977  0.00  0.00     0.210 HD
ENDBRANCH  12  34
TORSDOF 8
ENDMDL
MODEL 7
REMARK VINA RESULT:      -4.8     16.242     19.432
REMARK  8 active torsions:
REMARK  status: ('A' for Active; 'I' for Inactive)
REMARK    1  A    between atoms: C_6  and  O_7 
REMARK    2  A    between atoms: O_7  and  C_8 
REMARK    3  A    between atoms: C_10  and  C_20 
REMARK    4  A    between atoms: C_11  and  O_12 
REMARK    5  A    between atoms: C_14  and  O_15 
REMARK    6  A    between atoms: C_17  and  O_18 
REMARK    7  A    between atoms: C_20  and  O_21 
REMARK    8  A    between atoms: C_28  and  O_29 
ROOT
HETATM    1  O   UNK N   1      27.922  36.645  53.007  0.00  0.00    -0.265 OA
HETATM    2  C   UNK N   1      27.987  37.809  53.367  0.00  0.00     0.263 C 
HETATM    3  O   UNK N   1      27.355  38.789  52.718  0.00  0.00    -0.315 OA
HETATM    4  C   UNK N   1      27.372  39.965  53.428  0.00  0.00     0.144 C 
HETATM    5  C   UNK N   1      28.520  39.786  54.467  0.00  0.00     0.058 C 
HETATM    6  C   UNK N   1      28.308  40.564  55.811  0.00  0.00     0.136 C 
HETATM    7  C   UNK N   1      28.189  42.116  55.663  0.00  0.00     0.066 C 
HETATM    8  C   UNK N   1      27.366  42.646  54.512  0.00  0.00    -0.082 C 
HETATM    9  C   UNK N   1      27.965  42.471  53.126  0.00  0.00     0.023 C 
HETATM   10  C   UNK N   1      27.517  41.170  52.467  0.00  0.00     0.030 C 
HETATM   11  C   UNK N   1      26.189  41.585  51.818  0.00  0.00     0.017 C 
HETATM   12  C   UNK N   1      26.520  42.945  51.191  0.00  0.00     0.123 C 
HETATM   13  C   UNK N   1      27.599  43.559  52.100  0.00  0.00     0.041 C 
HETATM   14  C   UNK N   1      25.622  40.583  50.807  0.00  0.00     0.013 C 
HETATM   15  C   UNK N   1      26.224  43.322  54.747  0.00  0.00     0.015 C 
HETATM   16  C   UNK N   1      28.567  38.244  54.662  0.00  0.00     0.090 C 
HETATM   17  C   UNK N   1      29.978  37.695  54.897  0.00  0.00     0.021 C 
ENDROOT
BRANCH   6  18
HETATM   18  O   UNK N   1      29.378  40.207  56.690  0.00  0.00    -0.352 OA
BRANCH  18  19
HETATM   19  C   UNK N   1      29.602  41.131  57.747  0.00  0.00     0.292 C 
HETATM   20  O   UNK N   1      30.723  41.931  57.417  0.00  0.00    -0.348 OA
HETATM   21  C   UNK N   1      30.914  42.963  58.360  0.00  0.00     0.179 C 
HETATM   22  C   UNK N   1      31.420  42.330  59.667  0.00  0.00     0.180 C 
HETATM   23  C   UNK N   1      30.339  41.340  60.157  0.00  0.00     0.183 C 
HETATM   24  C   UNK N   1      29.947  40.348  59.036  0.00  0.00     0.204 C 
BRANCH  21  25
HETATM   25  C   UNK N   1      31.893  43.980  57.758  0.00  0.00     0.198 C 
BRANCH  25  26
HETATM   26  O   UNK N   1      33.219  43.675  58.100  0.00  0.00    -0.398 OA
HETATM   27  H   UNK N   1      33.736  43.661  57.251  0.00  0.00     0.209 HD
ENDBRANCH  25  26
ENDBRANCH  21  25
BRANCH  22  28
HETATM   28  O   UNK N   1      31.643  43.327  60.631  0.00  0.00    -0.390 OA
HETATM   29  H   UNK N   1      32.503  43.764  60.398  0.00  0.00     0.210 HD
ENDBRANCH  22  28
BRANCH  23  30
HETATM   30  O   UNK N   1      30.764  40.656  61.311  0.00  0.00    -0.390 OA
HETATM   31  H   UNK N   1      31.550  41.144  61.675  0.00  0.00     0.210 HD
ENDBRANCH  23  30
BRANCH  24  32
HETATM   32  O   UNK N   1      28.853  39.580  59.466  0.00  0.00    -0.388 OA
HETATM   33  H   UNK N   1      28.202  39.558  58.718  0.00  0.00     0.210 HD
ENDBRANCH  24  32
ENDBRANCH  18  19
ENDBRANCH   6  18
BRANCH  12  34
HETATM   34  O   UNK N   1      25.396  43.777  51.089  0.00  0.00    -0.395 OA
HETATM   35  H   UNK N   1      25.238  43.924  50.121  0.00  0.00     0.210 HD
ENDBRANCH  12  34
TORSDOF 8
ENDMDL
MODEL 8
REMARK VINA RESULT:      -4.7     16.573     19.569
REMARK  8 active torsions:
REMARK  status: ('A' for Active; 'I' for Inactive)
REMARK    1  A    between atoms: C_6  and  O_7 
REMARK    2  A    between atoms: O_7  and  C_8 
REMARK    3  A    between atoms: C_10  and  C_20 
REMARK    4  A    between atoms: C_11  and  O_12 
REMARK    5  A    between atoms: C_14  and  O_15 
REMARK    6  A    between atoms: C_17  and  O_18 
REMARK    7  A    between atoms: C_20  and  O_21 
REMARK    8  A    between atoms: C_28  and  O_29 
ROOT
HETATM    1  O   UNK N   1      31.346  49.653  55.500  0.00  0.00    -0.265 OA
HETATM    2  C   UNK N   1      30.684  49.173  56.406  0.00  0.00     0.263 C 
HETATM    3  O   UNK N   1      30.881  47.930  56.847  0.00  0.00    -0.315 OA
HETATM    4  C   UNK N   1      30.197  47.689  58.015  0.00  0.00     0.144 C 
HETATM    5  C   UNK N   1      29.113  48.807  58.078  0.00  0.00     0.058 C 
HETATM    6  C   UNK N   1      28.708  49.239  59.529  0.00  0.00     0.136 C 
HETATM    7  C   UNK N   1      28.108  48.098  60.415  0.00  0.00     0.066 C 
HETATM    8  C   UNK N   1      28.765  46.739  60.341  0.00  0.00    -0.082 C 
HETATM    9  C   UNK N   1      28.558  45.966  59.048  0.00  0.00     0.023 C 
HETATM   10  C   UNK N   1      29.665  46.235  58.035  0.00  0.00     0.030 C 
HETATM   11  C   UNK N   1      30.731  45.211  58.452  0.00  0.00     0.017 C 
HETATM   12  C   UNK N   1      29.910  43.940  58.702  0.00  0.00     0.123 C 
HETATM   13  C   UNK N   1      28.535  44.433  59.185  0.00  0.00     0.041 C 
HETATM   14  C   UNK N   1      31.861  45.003  57.438  0.00  0.00     0.013 C 
HETATM   15  C   UNK N   1      29.400  46.231  61.416  0.00  0.00     0.015 C 
HETATM   16  C   UNK N   1      29.762  49.960  57.262  0.00  0.00     0.090 C 
HETATM   17  C   UNK N   1      28.756  50.785  56.453  0.00  0.00     0.021 C 
ENDROOT
BRANCH   6  18
HETATM   18  O   UNK N   1      27.801  50.339  59.416  0.00  0.00    -0.352 OA
BRANCH  18  19
HETATM   19  C   UNK N   1      27.900  51.292  60.466  0.00  0.00     0.292 C 
HETATM   20  O   UNK N   1      26.730  51.213  61.259  0.00  0.00    -0.348 OA
HETATM   21  C   UNK N   1      26.827  52.035  62.402  0.00  0.00     0.179 C 
HETATM   22  C   UNK N   1      26.735  53.501  61.947  0.00  0.00     0.180 C 
HETATM   23  C   UNK N   1      27.915  53.768  60.984  0.00  0.00     0.183 C 
HETATM   24  C   UNK N   1      27.957  52.712  59.853  0.00  0.00     0.204 C 
BRANCH  21  25
HETATM   25  C   UNK N   1      25.712  51.630  63.374  0.00  0.00     0.198 C 
BRANCH  25  26
HETATM   26  O   UNK N   1      25.991  52.063  64.679  0.00  0.00    -0.398 OA
HETATM   27  H   UNK N   1      25.193  51.843  65.230  0.00  0.00     0.209 HD
ENDBRANCH  25  26
ENDBRANCH  21  25
BRANCH  22  28
HETATM   28  O   UNK N   1      26.809  54.357  63.058  0.00  0.00    -0.390 OA
HETATM   29  H   UNK N   1      26.652  53.796  63.862  0.00  0.00     0.210 HD
ENDBRANCH  22  28
BRANCH  23  30
HETATM   30  O   UNK N   1      27.855  55.070  60.456  0.00  0.00    -0.390 OA
HETATM   31  H   UNK N   1      27.257  55.043  59.663  0.00  0.00     0.210 HD
ENDBRANCH  23  30
BRANCH  24  32
HETATM   32  O   UNK N   1      29.131  52.890  59.103  0.00  0.00    -0.388 OA
HETATM   33  H   UNK N   1      29.048  52.322  58.295  0.00  0.00     0.210 HD
ENDBRANCH  24  32
ENDBRANCH  18  19
ENDBRANCH   6  18
BRANCH  12  34
HETATM   34  O   UNK N   1      30.512  43.088  59.640  0.00  0.00    -0.395 OA
HETATM   35  H   UNK N   1      29.842  42.392  59.863  0.00  0.00     0.210 HD
ENDBRANCH  12  34
TORSDOF 8
ENDMDL
MODEL 9
REMARK VINA RESULT:      -4.6     24.301     26.268
REMARK  8 active torsions:
REMARK  status: ('A' for Active; 'I' for Inactive)
REMARK    1  A    between atoms: C_6  and  O_7 
REMARK    2  A    between atoms: O_7  and  C_8 
REMARK    3  A    between atoms: C_10  and  C_20 
REMARK    4  A    between atoms: C_11  and  O_12 
REMARK    5  A    between atoms: C_14  and  O_15 
REMARK    6  A    between atoms: C_17  and  O_18 
REMARK    7  A    between atoms: C_20  and  O_21 
REMARK    8  A    between atoms: C_28  and  O_29 
ROOT
HETATM    1  O   UNK N   1      42.921  56.856  62.816  0.00  0.00    -0.265 OA
HETATM    2  C   UNK N   1      43.744  55.989  62.567  0.00  0.00     0.263 C 
HETATM    3  O   UNK N   1      43.617  54.740  63.018  0.00  0.00    -0.315 OA
HETATM    4  C   UNK N   1      44.518  53.889  62.424  0.00  0.00     0.144 C 
HETATM    5  C   UNK N   1      45.614  54.824  61.830  0.00  0.00     0.058 C 
HETATM    6  C   UNK N   1      46.313  54.269  60.541  0.00  0.00     0.136 C 
HETATM    7  C   UNK N   1      47.058  52.907  60.729  0.00  0.00     0.066 C 
HETATM    8  C   UNK N   1      46.373  51.846  61.559  0.00  0.00    -0.082 C 
HETATM    9  C   UNK N   1      46.299  52.113  63.054  0.00  0.00     0.023 C 
HETATM   10  C   UNK N   1      45.014  52.837  63.445  0.00  0.00     0.030 C 
HETATM   11  C   UNK N   1      44.035  51.667  63.625  0.00  0.00     0.017 C 
HETATM   12  C   UNK N   1      44.865  50.639  64.405  0.00  0.00     0.123 C 
HETATM   13  C   UNK N   1      46.319  50.865  63.955  0.00  0.00     0.041 C 
HETATM   14  C   UNK N   1      42.719  52.026  64.324  0.00  0.00     0.013 C 
HETATM   15  C   UNK N   1      45.960  50.698  60.988  0.00  0.00     0.015 C 
HETATM   16  C   UNK N   1      44.835  56.145  61.575  0.00  0.00     0.090 C 
HETATM   17  C   UNK N   1      45.672  57.409  61.803  0.00  0.00     0.021 C 
ENDROOT
BRANCH   6  18
HETATM   18  O   UNK N   1      47.200  55.284  60.060  0.00  0.00    -0.352 OA
BRANCH  18  19
HETATM   19  C   UNK N   1      47.379  55.285  58.650  0.00  0.00     0.292 C 
HETATM   20  O   UNK N   1      48.708  54.888  58.363  0.00  0.00    -0.348 OA
HETATM   21  C   UNK N   1      48.910  54.733  56.975  0.00  0.00     0.179 C 
HETATM   22  C   UNK N   1      48.909  56.130  56.331  0.00  0.00     0.180 C 
HETATM   23  C   UNK N   1      47.532  56.774  56.611  0.00  0.00     0.183 C 
HETATM   24  C   UNK N   1      47.195  56.728  58.120  0.00  0.00     0.204 C 
BRANCH  21  25
HETATM   25  C   UNK N   1      50.224  53.970  56.769  0.00  0.00     0.198 C 
BRANCH  25  26
HETATM   26  O   UNK N   1      50.258  53.342  55.516  0.00  0.00    -0.398 OA
HETATM   27  H   UNK N   1      50.256  54.065  54.834  0.00  0.00     0.209 HD
ENDBRANCH  25  26
ENDBRANCH  21  25
BRANCH  22  28
HETATM   28  O   UNK N   1      49.127  56.024  54.948  0.00  0.00    -0.390 OA
HETATM   29  H   UNK N   1      48.268  55.731  54.545  0.00  0.00     0.210 HD
ENDBRANCH  22  28
BRANCH  23  30
HETATM   30  O   UNK N   1      47.480  58.093  56.123  0.00  0.00    -0.390 OA
HETATM   31  H   UNK N   1      47.436  58.042  55.131  0.00  0.00     0.210 HD
ENDBRANCH  23  30
BRANCH  24  32
HETATM   32  O   UNK N   1      45.875  57.168  58.309  0.00  0.00    -0.388 OA
HETATM   33  H   UNK N   1      45.924  58.059  58.741  0.00  0.00     0.210 HD
ENDBRANCH  24  32
ENDBRANCH  18  19
ENDBRANCH   6  18
BRANCH  12  34
HETATM   34  O   UNK N   1      44.449  49.321  64.165  0.00  0.00    -0.395 OA
HETATM   35  H   UNK N   1      45.245  48.826  63.842  0.00  0.00     0.210 HD
ENDBRANCH  12  34
TORSDOF 8
ENDMDL
