MODEL 1
REMARK VINA RESULT:      -5.2      0.000      0.000
REMARK  8 active torsions:
REMARK  status: ('A' for Active; 'I' for Inactive)
REMARK    1  A    between atoms: C_6  and  O_7 
REMARK    2  A    between atoms: O_7  and  C_8 
REMARK    3  A    between atoms: C_10  and  C_20 
REMARK    4  A    between atoms: C_11  and  O_12 
REMARK    5  A    between atoms: C_14  and  O_15 
REMARK    6  A    between atoms: C_17  and  O_18 
REMARK    7  A    between atoms: C_20  and  O_21 
REMARK    8  A    between atoms: C_28  and  O_29 
ROOT
HETATM    1  O   UNK N   1      29.161  45.819  63.748  0.00  0.00    -0.265 OA
HETATM    2  C   UNK N   1      29.575  45.751  62.602  0.00  0.00     0.263 C 
HETATM    3  O   UNK N   1      29.960  44.596  62.053  0.00  0.00    -0.315 OA
HETATM    4  C   UNK N   1      30.163  44.715  60.699  0.00  0.00     0.144 C 
HETATM    5  C   UNK N   1      30.327  46.258  60.462  0.00  0.00     0.058 C 
HETATM    6  C   UNK N   1      29.870  46.749  59.042  0.00  0.00     0.136 C 
HETATM    7  C   UNK N   1      30.741  46.198  57.872  0.00  0.00     0.066 C 
HETATM    8  C   UNK N   1      30.877  44.701  57.927  0.00  0.00    -0.082 C 
HETATM    9  C   UNK N   1      31.936  44.142  58.869  0.00  0.00     0.023 C 
HETATM   10  C   UNK N   1      31.366  43.845  60.263  0.00  0.00     0.030 C 
HETATM   11  C   UNK N   1      31.128  42.330  60.215  0.00  0.00     0.017 C 
HETATM   12  C   UNK N   1      32.436  41.844  59.570  0.00  0.00     0.123 C 
HETATM   13  C   UNK N   1      32.611  42.823  58.403  0.00  0.00     0.041 C 
HETATM   14  C   UNK N   1      30.824  41.670  61.564  0.00  0.00     0.013 C 
HETATM   15  C   UNK N   1      29.982  43.933  57.271  0.00  0.00     0.015 C 
HETATM   16  C   UNK N   1      29.502  46.867  61.630  0.00  0.00     0.090 C 
HETATM   17  C   UNK N   1      30.096  48.165  62.184  0.00  0.00     0.021 C 
ENDROOT
BRANCH   6  18
HETATM   18  O   UNK N   1      29.829  48.175  59.022  0.00  0.00    -0.352 OA
BRANCH  18  19
HETATM   19  C   UNK N   1      28.567  48.745  58.654  0.00  0.00     0.292 C 
HETATM   20  O   UNK N   1      28.376  48.581  57.241  0.00  0.00    -0.348 OA
HETATM   21  C   UNK N   1      28.587  49.750  56.462  0.00  0.00     0.179 C 
HETATM   22  C   UNK N   1      27.648  50.925  56.878  0.00  0.00     0.180 C 
HETATM   23  C   UNK N   1      27.221  50.832  58.354  0.00  0.00     0.183 C 
HETATM   24  C   UNK N   1      28.338  50.211  59.183  0.00  0.00     0.204 C 
BRANCH  21  25
HETATM   25  C   UNK N   1      30.092  50.106  56.392  0.00  0.00     0.198 C 
BRANCH  25  26
HETATM   26  O   UNK N   1      30.852  48.997  55.988  0.00  0.00    -0.398 OA
HETATM   27  H   UNK N   1      30.611  48.792  55.048  0.00  0.00     0.209 HD
ENDBRANCH  25  26
ENDBRANCH  21  25
BRANCH  22  28
HETATM   28  O   UNK N   1      26.490  50.921  56.082  0.00  0.00    -0.390 OA
HETATM   29  H   UNK N   1      25.732  51.172  56.672  0.00  0.00     0.210 HD
ENDBRANCH  22  28
BRANCH  23  30
HETATM   30  O   UNK N   1      26.814  52.086  58.840  0.00  0.00    -0.390 OA
HETATM   31  H   UNK N   1      27.597  52.694  58.792  0.00  0.00     0.210 HD
ENDBRANCH  23  30
BRANCH  24  32
HETATM   32  O   UNK N   1      27.995  50.230  60.550  0.00  0.00    -0.388 OA
HETATM   33  H   UNK N   1      27.161  49.704  60.666  0.00  0.00     0.210 HD
ENDBRANCH  24  32
ENDBRANCH  18  19
ENDBRANCH   6  18
BRANCH  12  34
HETATM   34  O   UNK N   1      33.502  41.994  60.477  0.00  0.00    -0.395 OA
HETATM   35  H   UNK N   1      34.159  41.284  60.259  0.00  0.00     0.210 HD
ENDBRANCH  12  34
TORSDOF 8
ENDMDL
MODEL 2
REMARK VINA RESULT:      -5.1      5.527      7.860
REMARK  8 active torsions:
REMARK  status: ('A' for Active; 'I' for Inactive)
REMARK    1  A    between atoms: C_6  and  O_7 
REMARK    2  A    between atoms: O_7  and  C_8 
REMARK    3  A    between atoms: C_10  and  C_20 
REMARK    4  A    between atoms: C_11  and  O_12 
REMARK    5  A    between atoms: C_14  and  O_15 
REMARK    6  A    between atoms: C_17  and  O_18 
REMARK    7  A    between atoms: C_20  and  O_21 
REMARK    8  A    between atoms: C_28  and  O_29 
ROOT
HETATM    1  O   UNK N   1      28.603  37.089  57.375  0.00  0.00    -0.265 OA
HETATM    2  C   UNK N   1      28.806  38.290  57.432  0.00  0.00     0.263 C 
HETATM    3  O   UNK N   1      29.739  38.815  58.231  0.00  0.00    -0.315 OA
HETATM    4  C   UNK N   1      29.954  40.146  57.962  0.00  0.00     0.144 C 
HETATM    5  C   UNK N   1      28.677  40.596  57.168  0.00  0.00     0.058 C 
HETATM    6  C   UNK N   1      28.923  41.771  56.155  0.00  0.00     0.136 C 
HETATM    7  C   UNK N   1      29.313  43.119  56.834  0.00  0.00     0.066 C 
HETATM    8  C   UNK N   1      30.462  42.957  57.789  0.00  0.00    -0.082 C 
HETATM    9  C   UNK N   1      30.129  42.447  59.186  0.00  0.00     0.023 C 
HETATM   10  C   UNK N   1      30.225  40.917  59.276  0.00  0.00     0.030 C 
HETATM   11  C   UNK N   1      31.600  40.702  59.920  0.00  0.00     0.017 C 
HETATM   12  C   UNK N   1      31.567  41.747  61.047  0.00  0.00     0.123 C 
HETATM   13  C   UNK N   1      31.031  42.991  60.326  0.00  0.00     0.041 C 
HETATM   14  C   UNK N   1      31.880  39.278  60.410  0.00  0.00     0.013 C 
HETATM   15  C   UNK N   1      31.723  43.125  57.338  0.00  0.00     0.015 C 
HETATM   16  C   UNK N   1      28.218  39.273  56.492  0.00  0.00     0.090 C 
HETATM   17  C   UNK N   1      26.696  39.140  56.384  0.00  0.00     0.021 C 
ENDROOT
BRANCH   6  18
HETATM   18  O   UNK N   1      27.774  41.930  55.323  0.00  0.00    -0.352 OA
BRANCH  18  19
HETATM   19  C   UNK N   1      28.012  42.590  54.074  0.00  0.00     0.292 C 
HETATM   20  O   UNK N   1      26.750  42.928  53.479  0.00  0.00    -0.348 OA
HETATM   21  C   UNK N   1      26.341  42.090  52.408  0.00  0.00     0.179 C 
HETATM   22  C   UNK N   1      27.368  42.074  51.233  0.00  0.00     0.180 C 
HETATM   23  C   UNK N   1      28.800  42.375  51.709  0.00  0.00     0.183 C 
HETATM   24  C   UNK N   1      29.007  41.831  53.118  0.00  0.00     0.204 C 
BRANCH  21  25
HETATM   25  C   UNK N   1      25.917  40.694  52.927  0.00  0.00     0.198 C 
BRANCH  25  26
HETATM   26  O   UNK N   1      26.409  39.678  52.092  0.00  0.00    -0.398 OA
HETATM   27  H   UNK N   1      25.803  39.608  51.312  0.00  0.00     0.209 HD
ENDBRANCH  25  26
ENDBRANCH  21  25
BRANCH  22  28
HETATM   28  O   UNK N   1      27.011  43.034  50.270  0.00  0.00    -0.390 OA
HETATM   29  H   UNK N   1      26.208  42.688  49.800  0.00  0.00     0.210 HD
ENDBRANCH  22  28
BRANCH  23  30
HETATM   30  O   UNK N   1      29.748  41.889  50.793  0.00  0.00    -0.390 OA
HETATM   31  H   UNK N   1      29.318  41.873  49.898  0.00  0.00     0.210 HD
ENDBRANCH  23  30
BRANCH  24  32
HETATM   32  O   UNK N   1      30.349  42.003  53.510  0.00  0.00    -0.388 OA
HETATM   33  H   UNK N   1      30.431  42.889  53.953  0.00  0.00     0.210 HD
ENDBRANCH  24  32
ENDBRANCH  18  19
ENDBRANCH   6  18
BRANCH  12  34
HETATM   34  O   UNK N   1      30.657  41.349  62.043  0.00  0.00    -0.395 OA
HETATM   35  H   UNK N   1      31.186  40.869  62.732  0.00  0.00     0.210 HD
ENDBRANCH  12  34
TORSDOF 8
ENDMDL
MODEL 3
REMARK VINA RESULT:      -4.9     18.755     20.300
REMARK  8 active torsions:
REMARK  status: ('A' for Active; 'I' for Inactive)
REMARK    1  A    between atoms: C_6  and  O_7 
REMARK    2  A    between atoms: O_7  and  C_8 
REMARK    3  A    between atoms: C_10  and  C_20 
REMARK    4  A    between atoms: C_11  and  O_12 
REMARK    5  A    between atoms: C_14  and  O_15 
REMARK    6  A    between atoms: C_17  and  O_18 
REMARK    7  A    between atoms: C_20  and  O_21 
REMARK    8  A    between atoms: C_28  and  O_29 
ROOT
HETATM    1  O   UNK N   1      50.944  48.306  61.095  0.00  0.00    -0.265 OA
HETATM    2  C   UNK N   1      50.201  49.262  60.942  0.00  0.00     0.263 C 
HETATM    3  O   UNK N   1      49.028  49.356  61.572  0.00  0.00    -0.315 OA
HETATM    4  C   UNK N   1      48.473  50.607  61.438  0.00  0.00     0.144 C 
HETATM    5  C   UNK N   1      49.217  51.235  60.206  0.00  0.00     0.058 C 
HETATM    6  C   UNK N   1      49.333  52.801  60.247  0.00  0.00     0.136 C 
HETATM    7  C   UNK N   1      47.963  53.539  60.146  0.00  0.00     0.066 C 
HETATM    8  C   UNK N   1      46.971  53.027  61.153  0.00  0.00    -0.082 C 
HETATM    9  C   UNK N   1      46.217  51.753  60.790  0.00  0.00     0.023 C 
HETATM   10  C   UNK N   1      46.936  50.496  61.300  0.00  0.00     0.030 C 
HETATM   11  C   UNK N   1      46.160  50.158  62.579  0.00  0.00     0.017 C 
HETATM   12  C   UNK N   1      44.709  50.329  62.101  0.00  0.00     0.123 C 
HETATM   13  C   UNK N   1      44.768  51.659  61.339  0.00  0.00     0.041 C 
HETATM   14  C   UNK N   1      46.452  48.779  63.180  0.00  0.00     0.013 C 
HETATM   15  C   UNK N   1      46.899  53.616  62.365  0.00  0.00     0.015 C 
HETATM   16  C   UNK N   1      50.589  50.505  60.234  0.00  0.00     0.090 C 
HETATM   17  C   UNK N   1      51.161  50.230  58.841  0.00  0.00     0.021 C 
ENDROOT
BRANCH   6  18
HETATM   18  O   UNK N   1      50.227  53.238  59.224  0.00  0.00    -0.352 OA
BRANCH  18  19
HETATM   19  C   UNK N   1      49.601  53.789  58.060  0.00  0.00     0.292 C 
HETATM   20  O   UNK N   1      49.714  52.850  56.981  0.00  0.00    -0.348 OA
HETATM   21  C   UNK N   1      50.700  53.161  56.008  0.00  0.00     0.179 C 
HETATM   22  C   UNK N   1      50.460  54.547  55.333  0.00  0.00     0.180 C 
HETATM   23  C   UNK N   1      49.695  55.516  56.252  0.00  0.00     0.183 C 
HETATM   24  C   UNK N   1      50.061  55.254  57.708  0.00  0.00     0.204 C 
BRANCH  21  25
HETATM   25  C   UNK N   1      52.126  52.946  56.574  0.00  0.00     0.198 C 
BRANCH  25  26
HETATM   26  O   UNK N   1      52.992  53.967  56.153  0.00  0.00    -0.398 OA
HETATM   27  H   UNK N   1      53.301  53.743  55.238  0.00  0.00     0.209 HD
ENDBRANCH  25  26
ENDBRANCH  21  25
BRANCH  22  28
HETATM   28  O   UNK N   1      49.721  54.385  54.149  0.00  0.00    -0.390 OA
HETATM   29  H   UNK N   1      49.437  55.291  53.858  0.00  0.00     0.210 HD
ENDBRANCH  22  28
BRANCH  23  30
HETATM   30  O   UNK N   1      49.909  56.851  55.868  0.00  0.00    -0.390 OA
HETATM   31  H   UNK N   1      50.879  57.039  55.968  0.00  0.00     0.210 HD
ENDBRANCH  23  30
BRANCH  24  32
HETATM   32  O   UNK N   1      49.451  56.213  58.541  0.00  0.00    -0.388 OA
HETATM   33  H   UNK N   1      49.311  55.801  59.434  0.00  0.00     0.210 HD
ENDBRANCH  24  32
ENDBRANCH  18  19
ENDBRANCH   6  18
BRANCH  12  34
HETATM   34  O   UNK N   1      44.373  49.290  61.213  0.00  0.00    -0.395 OA
HETATM   35  H   UNK N   1      45.228  48.880  60.922  0.00  0.00     0.210 HD
ENDBRANCH  12  34
TORSDOF 8
ENDMDL
MODEL 4
REMARK VINA RESULT:      -4.8     19.052     21.190
REMARK  8 active torsions:
REMARK  status: ('A' for Active; 'I' for Inactive)
REMARK    1  A    between atoms: C_6  and  O_7 
REMARK    2  A    between atoms: O_7  and  C_8 
REMARK    3  A    between atoms: C_10  and  C_20 
REMARK    4  A    between atoms: C_11  and  O_12 
REMARK    5  A    between atoms: C_14  and  O_15 
REMARK    6  A    between atoms: C_17  and  O_18 
REMARK    7  A    between atoms: C_20  and  O_21 
REMARK    8  A    between atoms: C_28  and  O_29 
ROOT
HETATM    1  O   UNK N   1      44.917  59.822  57.458  0.00  0.00    -0.265 OA
HETATM    2  C   UNK N   1      45.490  58.885  57.988  0.00  0.00     0.263 C 
HETATM    3  O   UNK N   1      44.958  58.216  59.014  0.00  0.00    -0.315 OA
HETATM    4  C   UNK N   1      45.659  57.068  59.296  0.00  0.00     0.144 C 
HETATM    5  C   UNK N   1      47.056  57.284  58.612  0.00  0.00     0.058 C 
HETATM    6  C   UNK N   1      47.766  55.960  58.153  0.00  0.00     0.136 C 
HETATM    7  C   UNK N   1      48.179  55.024  59.330  0.00  0.00     0.066 C 
HETATM    8  C   UNK N   1      47.030  54.747  60.260  0.00  0.00    -0.082 C 
HETATM    9  C   UNK N   1      46.730  55.804  61.316  0.00  0.00     0.023 C 
HETATM   10  C   UNK N   1      45.699  56.829  60.825  0.00  0.00     0.030 C 
HETATM   11  C   UNK N   1      44.397  56.336  61.470  0.00  0.00     0.017 C 
HETATM   12  C   UNK N   1      44.871  56.034  62.901  0.00  0.00     0.123 C 
HETATM   13  C   UNK N   1      46.174  55.262  62.660  0.00  0.00     0.041 C 
HETATM   14  C   UNK N   1      43.220  57.314  61.405  0.00  0.00     0.013 C 
HETATM   15  C   UNK N   1      46.242  53.675  60.033  0.00  0.00     0.015 C 
HETATM   16  C   UNK N   1      46.711  58.247  57.441  0.00  0.00     0.090 C 
HETATM   17  C   UNK N   1      47.817  59.262  57.142  0.00  0.00     0.021 C 
ENDROOT
BRANCH   6  18
HETATM   18  O   UNK N   1      48.890  56.283  57.336  0.00  0.00    -0.352 OA
BRANCH  18  19
HETATM   19  C   UNK N   1      49.006  55.521  56.128  0.00  0.00     0.292 C 
HETATM   20  O   UNK N   1      49.821  54.367  56.381  0.00  0.00    -0.348 OA
HETATM   21  C   UNK N   1      51.151  54.446  55.890  0.00  0.00     0.179 C 
HETATM   22  C   UNK N   1      51.208  54.670  54.346  0.00  0.00     0.180 C 
HETATM   23  C   UNK N   1      49.956  55.393  53.818  0.00  0.00     0.183 C 
HETATM   24  C   UNK N   1      49.431  56.364  54.868  0.00  0.00     0.204 C 
BRANCH  21  25
HETATM   25  C   UNK N   1      51.994  55.440  56.727  0.00  0.00     0.198 C 
BRANCH  25  26
HETATM   26  O   UNK N   1      51.721  55.298  58.097  0.00  0.00    -0.398 OA
HETATM   27  H   UNK N   1      52.394  54.679  58.477  0.00  0.00     0.209 HD
ENDBRANCH  25  26
ENDBRANCH  21  25
BRANCH  22  28
HETATM   28  O   UNK N   1      51.317  53.434  53.685  0.00  0.00    -0.390 OA
HETATM   29  H   UNK N   1      50.426  53.235  53.295  0.00  0.00     0.210 HD
ENDBRANCH  22  28
BRANCH  23  30
HETATM   30  O   UNK N   1      50.216  56.012  52.583  0.00  0.00    -0.390 OA
HETATM   31  H   UNK N   1      50.828  56.775  52.754  0.00  0.00     0.210 HD
ENDBRANCH  23  30
BRANCH  24  32
HETATM   32  O   UNK N   1      48.356  57.109  54.344  0.00  0.00    -0.388 OA
HETATM   33  H   UNK N   1      47.511  56.677  54.635  0.00  0.00     0.210 HD
ENDBRANCH  24  32
ENDBRANCH  18  19
ENDBRANCH   6  18
BRANCH  12  34
HETATM   34  O   UNK N   1      45.152  57.237  63.576  0.00  0.00    -0.395 OA
HETATM   35  H   UNK N   1      46.102  57.452  63.384  0.00  0.00     0.210 HD
ENDBRANCH  12  34
TORSDOF 8
ENDMDL
MODEL 5
REMARK VINA RESULT:      -4.8     18.247     20.432
REMARK  8 active torsions:
REMARK  status: ('A' for Active; 'I' for Inactive)
REMARK    1  A    between atoms: C_6  and  O_7 
REMARK    2  A    between atoms: O_7  and  C_8 
REMARK    3  A    between atoms: C_10  and  C_20 
REMARK    4  A    between atoms: C_11  and  O_12 
REMARK    5  A    between atoms: C_14  and  O_15 
REMARK    6  A    between atoms: C_17  and  O_18 
REMARK    7  A    between atoms: C_20  and  O_21 
REMARK    8  A    between atoms: C_28  and  O_29 
ROOT
HETATM    1  O   UNK N   1      45.166  53.714  62.581  0.00  0.00    -0.265 OA
HETATM    2  C   UNK N   1      45.361  54.593  61.758  0.00  0.00     0.263 C 
HETATM    3  O   UNK N   1      44.521  55.619  61.603  0.00  0.00    -0.315 OA
HETATM    4  C   UNK N   1      45.051  56.598  60.797  0.00  0.00     0.144 C 
HETATM    5  C   UNK N   1      46.207  55.878  60.016  0.00  0.00     0.058 C 
HETATM    6  C   UNK N   1      47.393  56.820  59.597  0.00  0.00     0.136 C 
HETATM    7  C   UNK N   1      46.995  57.910  58.555  0.00  0.00     0.066 C 
HETATM    8  C   UNK N   1      45.788  58.693  58.991  0.00  0.00    -0.082 C 
HETATM    9  C   UNK N   1      44.426  58.062  58.727  0.00  0.00     0.023 C 
HETATM   10  C   UNK N   1      43.942  57.221  59.916  0.00  0.00     0.030 C 
HETATM   11  C   UNK N   1      42.962  58.166  60.622  0.00  0.00     0.017 C 
HETATM   12  C   UNK N   1      42.168  58.718  59.427  0.00  0.00     0.123 C 
HETATM   13  C   UNK N   1      43.277  59.062  58.425  0.00  0.00     0.041 C 
HETATM   14  C   UNK N   1      42.085  57.519  61.698  0.00  0.00     0.013 C 
HETATM   15  C   UNK N   1      45.959  59.822  59.712  0.00  0.00     0.015 C 
HETATM   16  C   UNK N   1      46.624  54.748  60.999  0.00  0.00     0.090 C 
HETATM   17  C   UNK N   1      47.048  53.455  60.297  0.00  0.00     0.021 C 
ENDROOT
BRANCH   6  18
HETATM   18  O   UNK N   1      48.482  56.030  59.122  0.00  0.00    -0.352 OA
BRANCH  18  19
HETATM   19  C   UNK N   1      48.660  56.027  57.701  0.00  0.00     0.292 C 
HETATM   20  O   UNK N   1      48.185  54.779  57.175  0.00  0.00    -0.348 OA
HETATM   21  C   UNK N   1      49.195  53.846  56.820  0.00  0.00     0.179 C 
HETATM   22  C   UNK N   1      50.178  54.407  55.746  0.00  0.00     0.180 C 
HETATM   23  C   UNK N   1      50.277  55.942  55.794  0.00  0.00     0.183 C 
HETATM   24  C   UNK N   1      50.106  56.432  57.227  0.00  0.00     0.204 C 
BRANCH  21  25
HETATM   25  C   UNK N   1      49.872  53.255  58.082  0.00  0.00     0.198 C 
BRANCH  25  26
HETATM   26  O   UNK N   1      50.228  51.913  57.877  0.00  0.00    -0.398 OA
HETATM   27  H   UNK N   1      49.570  51.518  57.250  0.00  0.00     0.209 HD
ENDBRANCH  25  26
ENDBRANCH  21  25
BRANCH  22  28
HETATM   28  O   UNK N   1      49.750  54.032  54.460  0.00  0.00    -0.390 OA
HETATM   29  H   UNK N   1      49.771  53.040  54.426  0.00  0.00     0.210 HD
ENDBRANCH  22  28
BRANCH  23  30
HETATM   30  O   UNK N   1      51.472  56.389  55.204  0.00  0.00    -0.390 OA
HETATM   31  H   UNK N   1      51.842  55.637  54.672  0.00  0.00     0.210 HD
ENDBRANCH  23  30
BRANCH  24  32
HETATM   32  O   UNK N   1      50.311  57.825  57.290  0.00  0.00    -0.388 OA
HETATM   33  H   UNK N   1      51.202  58.024  56.900  0.00  0.00     0.210 HD
ENDBRANCH  24  32
ENDBRANCH  18  19
ENDBRANCH   6  18
BRANCH  12  34
HETATM   34  O   UNK N   1      41.345  57.710  58.893  0.00  0.00    -0.395 OA
HETATM   35  H   UNK N   1      41.937  56.940  58.691  0.00  0.00     0.210 HD
ENDBRANCH  12  34
TORSDOF 8
ENDMDL
MODEL 6
REMARK VINA RESULT:      -4.7     19.758     21.889
REMARK  8 active torsions:
REMARK  status: ('A' for Active; 'I' for Inactive)
REMARK    1  A    between atoms: C_6  and  O_7 
REMARK    2  A    between atoms: O_7  and  C_8 
REMARK    3  A    between atoms: C_10  and  C_20 
REMARK    4  A    between atoms: C_11  and  O_12 
REMARK    5  A    between atoms: C_14  and  O_15 
REMARK    6  A    between atoms: C_17  and  O_18 
REMARK    7  A    between atoms: C_20  and  O_21 
REMARK    8  A    between atoms: C_28  and  O_29 
ROOT
HETATM    1  O   UNK N   1      48.055  53.308  61.472  0.00  0.00    -0.265 OA
HETATM    2  C   UNK N   1      48.000  54.233  60.678  0.00  0.00     0.263 C 
HETATM    3  O   UNK N   1      47.081  55.196  60.774  0.00  0.00    -0.315 OA
HETATM    4  C   UNK N   1      47.349  56.246  59.928  0.00  0.00     0.144 C 
HETATM    5  C   UNK N   1      48.344  55.651  58.869  0.00  0.00     0.058 C 
HETATM    6  C   UNK N   1      49.338  56.699  58.252  0.00  0.00     0.136 C 
HETATM    7  C   UNK N   1      48.644  57.797  57.390  0.00  0.00     0.066 C 
HETATM    8  C   UNK N   1      47.518  58.465  58.128  0.00  0.00    -0.082 C 
HETATM    9  C   UNK N   1      46.176  57.742  58.137  0.00  0.00     0.023 C 
HETATM   10  C   UNK N   1      46.031  56.817  59.353  0.00  0.00     0.030 C 
HETATM   11  C   UNK N   1      45.175  57.653  60.314  0.00  0.00     0.017 C 
HETATM   12  C   UNK N   1      44.097  58.191  59.360  0.00  0.00     0.123 C 
HETATM   13  C   UNK N   1      44.925  58.661  58.158  0.00  0.00     0.041 C 
HETATM   14  C   UNK N   1      44.609  56.895  61.519  0.00  0.00     0.013 C 
HETATM   15  C   UNK N   1      47.772  59.573  58.857  0.00  0.00     0.015 C 
HETATM   16  C   UNK N   1      49.046  54.517  59.668  0.00  0.00     0.090 C 
HETATM   17  C   UNK N   1      49.385  53.291  58.815  0.00  0.00     0.021 C 
ENDROOT
BRANCH   6  18
HETATM   18  O   UNK N   1      50.342  56.017  57.502  0.00  0.00    -0.352 OA
BRANCH  18  19
HETATM   19  C   UNK N   1      50.107  55.946  56.090  0.00  0.00     0.292 C 
HETATM   20  O   UNK N   1      49.733  54.603  55.747  0.00  0.00    -0.348 OA
HETATM   21  C   UNK N   1      50.751  53.829  55.130  0.00  0.00     0.179 C 
HETATM   22  C   UNK N   1      51.272  54.471  53.806  0.00  0.00     0.180 C 
HETATM   23  C   UNK N   1      51.105  56.001  53.797  0.00  0.00     0.183 C 
HETATM   24  C   UNK N   1      51.262  56.552  55.209  0.00  0.00     0.204 C 
BRANCH  21  25
HETATM   25  C   UNK N   1      51.852  53.446  56.150  0.00  0.00     0.198 C 
BRANCH  25  26
HETATM   26  O   UNK N   1      53.130  53.655  55.609  0.00  0.00    -0.398 OA
HETATM   27  H   UNK N   1      53.234  53.047  54.833  0.00  0.00     0.209 HD
ENDBRANCH  25  26
ENDBRANCH  21  25
BRANCH  22  28
HETATM   28  O   UNK N   1      50.571  53.944  52.708  0.00  0.00    -0.390 OA
HETATM   29  H   UNK N   1      50.901  54.417  51.900  0.00  0.00     0.210 HD
ENDBRANCH  22  28
BRANCH  23  30
HETATM   30  O   UNK N   1      51.984  56.598  52.877  0.00  0.00    -0.390 OA
HETATM   31  H   UNK N   1      52.359  55.876  52.310  0.00  0.00     0.210 HD
ENDBRANCH  23  30
BRANCH  24  32
HETATM   32  O   UNK N   1      51.225  57.960  55.186  0.00  0.00    -0.388 OA
HETATM   33  H   UNK N   1      51.952  58.298  55.772  0.00  0.00     0.210 HD
ENDBRANCH  24  32
ENDBRANCH  18  19
ENDBRANCH   6  18
BRANCH  12  34
HETATM   34  O   UNK N   1      43.243  57.145  58.965  0.00  0.00    -0.395 OA
HETATM   35  H   UNK N   1      42.734  56.876  59.773  0.00  0.00     0.210 HD
ENDBRANCH  12  34
TORSDOF 8
ENDMDL
MODEL 7
REMARK VINA RESULT:      -4.7     18.283     20.249
REMARK  8 active torsions:
REMARK  status: ('A' for Active; 'I' for Inactive)
REMARK    1  A    between atoms: C_6  and  O_7 
REMARK    2  A    between atoms: O_7  and  C_8 
REMARK    3  A    between atoms: C_10  and  C_20 
REMARK    4  A    between atoms: C_11  and  O_12 
REMARK    5  A    between atoms: C_14  and  O_15 
REMARK    6  A    between atoms: C_17  and  O_18 
REMARK    7  A    between atoms: C_20  and  O_21 
REMARK    8  A    between atoms: C_28  and  O_29 
ROOT
HETATM    1  O   UNK N   1      47.289  57.747  59.526  0.00  0.00    -0.265 OA
HETATM    2  C   UNK N   1      47.767  56.639  59.341  0.00  0.00     0.263 C 
HETATM    3  O   UNK N   1      48.711  56.419  58.423  0.00  0.00    -0.315 OA
HETATM    4  C   UNK N   1      49.265  55.167  58.548  0.00  0.00     0.144 C 
HETATM    5  C   UNK N   1      48.221  54.361  59.401  0.00  0.00     0.058 C 
HETATM    6  C   UNK N   1      48.844  53.215  60.276  0.00  0.00     0.136 C 
HETATM    7  C   UNK N   1      49.474  52.056  59.445  0.00  0.00     0.066 C 
HETATM    8  C   UNK N   1      50.447  52.563  58.417  0.00  0.00    -0.082 C 
HETATM    9  C   UNK N   1      49.859  53.072  57.106  0.00  0.00     0.023 C 
HETATM   10  C   UNK N   1      49.576  54.580  57.151  0.00  0.00     0.030 C 
HETATM   11  C   UNK N   1      50.786  55.173  56.418  0.00  0.00     0.017 C 
HETATM   12  C   UNK N   1      50.889  54.233  55.206  0.00  0.00     0.123 C 
HETATM   13  C   UNK N   1      50.743  52.848  55.850  0.00  0.00     0.041 C 
HETATM   14  C   UNK N   1      50.665  56.652  56.040  0.00  0.00     0.013 C 
HETATM   15  C   UNK N   1      51.751  52.682  58.745  0.00  0.00     0.015 C 
HETATM   16  C   UNK N   1      47.531  55.479  60.232  0.00  0.00     0.090 C 
HETATM   17  C   UNK N   1      46.041  55.224  60.477  0.00  0.00     0.021 C 
ENDROOT
BRANCH   6  18
HETATM   18  O   UNK N   1      47.859  52.720  61.182  0.00  0.00    -0.352 OA
BRANCH  18  19
HETATM   19  C   UNK N   1      47.077  51.624  60.694  0.00  0.00     0.292 C 
HETATM   20  O   UNK N   1      45.750  52.090  60.409  0.00  0.00    -0.348 OA
HETATM   21  C   UNK N   1      44.765  51.738  61.370  0.00  0.00     0.179 C 
HETATM   22  C   UNK N   1      44.636  50.195  61.559  0.00  0.00     0.180 C 
HETATM   23  C   UNK N   1      45.946  49.458  61.230  0.00  0.00     0.183 C 
HETATM   24  C   UNK N   1      47.142  50.331  61.590  0.00  0.00     0.204 C 
BRANCH  21  25
HETATM   25  C   UNK N   1      44.953  52.545  62.678  0.00  0.00     0.198 C 
BRANCH  25  26
HETATM   26  O   UNK N   1      44.745  51.732  63.803  0.00  0.00    -0.398 OA
HETATM   27  H   UNK N   1      44.874  50.790  63.523  0.00  0.00     0.209 HD
ENDBRANCH  25  26
ENDBRANCH  21  25
BRANCH  22  28
HETATM   28  O   UNK N   1      43.624  49.690  60.725  0.00  0.00    -0.390 OA
HETATM   29  H   UNK N   1      43.457  48.753  61.006  0.00  0.00     0.210 HD
ENDBRANCH  22  28
BRANCH  23  30
HETATM   30  O   UNK N   1      45.986  48.197  61.850  0.00  0.00    -0.390 OA
HETATM   31  H   UNK N   1      46.555  47.606  61.291  0.00  0.00     0.210 HD
ENDBRANCH  23  30
BRANCH  24  32
HETATM   32  O   UNK N   1      48.340  49.615  61.398  0.00  0.00    -0.388 OA
HETATM   33  H   UNK N   1      48.703  49.375  62.290  0.00  0.00     0.210 HD
ENDBRANCH  24  32
ENDBRANCH  18  19
ENDBRANCH   6  18
BRANCH  12  34
HETATM   34  O   UNK N   1      49.812  54.462  54.329  0.00  0.00    -0.395 OA
HETATM   35  H   UNK N   1      50.197  54.872  53.512  0.00  0.00     0.210 HD
ENDBRANCH  12  34
TORSDOF 8
ENDMDL
MODEL 8
REMARK VINA RESULT:      -4.6      3.150      4.630
REMARK  8 active torsions:
REMARK  status: ('A' for Active; 'I' for Inactive)
REMARK    1  A    between atoms: C_6  and  O_7 
REMARK    2  A    between atoms: O_7  and  C_8 
REMARK    3  A    between atoms: C_10  and  C_20 
REMARK    4  A    between atoms: C_11  and  O_12 
REMARK    5  A    between atoms: C_14  and  O_15 
REMARK    6  A    between atoms: C_17  and  O_18 
REMARK    7  A    between atoms: C_20  and  O_21 
REMARK    8  A    between atoms: C_28  and  O_29 
ROOT
HETATM    1  O   UNK N   1      32.611  43.272  57.465  0.00  0.00    -0.265 OA
HETATM    2  C   UNK N   1      31.410  43.469  57.390  0.00  0.00     0.263 C 
HETATM    3  O   UNK N   1      30.562  42.526  56.972  0.00  0.00    -0.315 OA
HETATM    4  C   UNK N   1      29.252  42.883  57.189  0.00  0.00     0.144 C 
HETATM    5  C   UNK N   1      29.298  44.439  57.387  0.00  0.00     0.058 C 
HETATM    6  C   UNK N   1      28.164  45.010  58.313  0.00  0.00     0.136 C 
HETATM    7  C   UNK N   1      26.729  44.850  57.726  0.00  0.00     0.066 C 
HETATM    8  C   UNK N   1      26.446  43.434  57.306  0.00  0.00    -0.082 C 
HETATM    9  C   UNK N   1      26.962  43.006  55.938  0.00  0.00     0.023 C 
HETATM   10  C   UNK N   1      28.364  42.388  56.022  0.00  0.00     0.030 C 
HETATM   11  C   UNK N   1      28.073  40.882  55.980  0.00  0.00     0.017 C 
HETATM   12  C   UNK N   1      27.039  40.811  54.844  0.00  0.00     0.123 C 
HETATM   13  C   UNK N   1      26.087  41.962  55.193  0.00  0.00     0.041 C 
HETATM   14  C   UNK N   1      29.293  39.982  55.759  0.00  0.00     0.013 C 
HETATM   15  C   UNK N   1      25.891  42.582  58.193  0.00  0.00     0.015 C 
HETATM   16  C   UNK N   1      30.732  44.665  57.942  0.00  0.00     0.090 C 
HETATM   17  C   UNK N   1      31.372  45.972  57.464  0.00  0.00     0.021 C 
ENDROOT
BRANCH   6  18
HETATM   18  O   UNK N   1      28.444  46.375  58.620  0.00  0.00    -0.352 OA
BRANCH  18  19
HETATM   19  C   UNK N   1      27.571  47.330  58.005  0.00  0.00     0.292 C 
HETATM   20  O   UNK N   1      28.280  48.000  56.952  0.00  0.00    -0.348 OA
HETATM   21  C   UNK N   1      28.717  49.316  57.258  0.00  0.00     0.179 C 
HETATM   22  C   UNK N   1      27.539  50.265  57.641  0.00  0.00     0.180 C 
HETATM   23  C   UNK N   1      26.345  49.499  58.238  0.00  0.00     0.183 C 
HETATM   24  C   UNK N   1      26.840  48.288  59.020  0.00  0.00     0.204 C 
BRANCH  21  25
HETATM   25  C   UNK N   1      29.891  49.290  58.268  0.00  0.00     0.198 C 
BRANCH  25  26
HETATM   26  O   UNK N   1      29.809  50.370  59.160  0.00  0.00    -0.398 OA
HETATM   27  H   UNK N   1      29.538  51.170  58.642  0.00  0.00     0.209 HD
ENDBRANCH  25  26
ENDBRANCH  21  25
BRANCH  22  28
HETATM   28  O   UNK N   1      27.093  50.961  56.503  0.00  0.00    -0.390 OA
HETATM   29  H   UNK N   1      26.410  50.389  56.064  0.00  0.00     0.210 HD
ENDBRANCH  22  28
BRANCH  23  30
HETATM   30  O   UNK N   1      25.533  50.350  59.007  0.00  0.00    -0.390 OA
HETATM   31  H   UNK N   1      24.984  49.779  59.605  0.00  0.00     0.210 HD
ENDBRANCH  23  30
BRANCH  24  32
HETATM   32  O   UNK N   1      25.760  47.652  59.662  0.00  0.00    -0.388 OA
HETATM   33  H   UNK N   1      26.061  47.367  60.564  0.00  0.00     0.210 HD
ENDBRANCH  24  32
ENDBRANCH  18  19
ENDBRANCH   6  18
BRANCH  12  34
HETATM   34  O   UNK N   1      27.665  41.073  53.611  0.00  0.00    -0.395 OA
HETATM   35  H   UNK N   1      28.443  41.655  53.808  0.00  0.00     0.210 HD
ENDBRANCH  12  34
TORSDOF 8
ENDMDL
MODEL 9
REMARK VINA RESULT:      -4.6     19.863     21.504
REMARK  8 active torsions:
REMARK  status: ('A' for Active; 'I' for Inactive)
REMARK    1  A    between atoms: C_6  and  O_7 
REMARK    2  A    between atoms: O_7  and  C_8 
REMARK    3  A    between atoms: C_10  and  C_20 
REMARK    4  A    between atoms: C_11  and  O_12 
REMARK    5  A    between atoms: C_14  and  O_15 
REMARK    6  A    between atoms: C_17  and  O_18 
REMARK    7  A    between atoms: C_20  and  O_21 
REMARK    8  A    between atoms: C_28  and  O_29 
ROOT
HETATM    1  O   UNK N   1      51.924  50.989  60.715  0.00  0.00    -0.265 OA
HETATM    2  C   UNK N   1      51.105  51.797  60.310  0.00  0.00     0.263 C 
HETATM    3  O   UNK N   1      49.950  52.014  60.944  0.00  0.00    -0.315 OA
HETATM    4  C   UNK N   1      49.296  53.119  60.453  0.00  0.00     0.144 C 
HETATM    5  C   UNK N   1      49.945  53.364  59.045  0.00  0.00     0.058 C 
HETATM    6  C   UNK N   1      49.941  54.864  58.580  0.00  0.00     0.136 C 
HETATM    7  C   UNK N   1      48.515  55.444  58.329  0.00  0.00     0.066 C 
HETATM    8  C   UNK N   1      47.602  55.221  59.503  0.00  0.00    -0.082 C 
HETATM    9  C   UNK N   1      46.937  53.854  59.607  0.00  0.00     0.023 C 
HETATM   10  C   UNK N   1      47.768  52.874  60.446  0.00  0.00     0.030 C 
HETATM   11  C   UNK N   1      47.066  52.916  61.809  0.00  0.00     0.017 C 
HETATM   12  C   UNK N   1      45.590  52.833  61.386  0.00  0.00     0.123 C 
HETATM   13  C   UNK N   1      45.519  53.850  60.239  0.00  0.00     0.041 C 
HETATM   14  C   UNK N   1      47.484  51.823  62.798  0.00  0.00     0.013 C 
HETATM   15  C   UNK N   1      47.526  56.162  60.467  0.00  0.00     0.015 C 
HETATM   16  C   UNK N   1      51.370  52.769  59.223  0.00  0.00     0.090 C 
HETATM   17  C   UNK N   1      51.913  52.098  57.959  0.00  0.00     0.021 C 
ENDROOT
BRANCH   6  18
HETATM   18  O   UNK N   1      50.762  55.006  57.422  0.00  0.00    -0.352 OA
BRANCH  18  19
HETATM   19  C   UNK N   1      50.070  54.936  56.170  0.00  0.00     0.292 C 
HETATM   20  O   UNK N   1      50.322  53.658  55.568  0.00  0.00    -0.348 OA
HETATM   21  C   UNK N   1      51.259  53.665  54.501  0.00  0.00     0.179 C 
HETATM   22  C   UNK N   1      50.827  54.601  53.330  0.00  0.00     0.180 C 
HETATM   23  C   UNK N   1      49.926  55.753  53.809  0.00  0.00     0.183 C 
HETATM   24  C   UNK N   1      50.317  56.170  55.222  0.00  0.00     0.204 C 
BRANCH  21  25
HETATM   25  C   UNK N   1      52.698  53.895  55.027  0.00  0.00     0.198 C 
BRANCH  25  26
HETATM   26  O   UNK N   1      53.444  54.669  54.125  0.00  0.00    -0.398 OA
HETATM   27  H   UNK N   1      52.817  55.280  53.660  0.00  0.00     0.209 HD
ENDBRANCH  25  26
ENDBRANCH  21  25
BRANCH  22  28
HETATM   28  O   UNK N   1      50.125  53.866  52.360  0.00  0.00    -0.390 OA
HETATM   29  H   UNK N   1      50.068  52.931  52.690  0.00  0.00     0.210 HD
ENDBRANCH  22  28
BRANCH  23  30
HETATM   30  O   UNK N   1      49.949  56.824  52.899  0.00  0.00    -0.390 OA
HETATM   31  H   UNK N   1      49.016  56.982  52.600  0.00  0.00     0.210 HD
ENDBRANCH  23  30
BRANCH  24  32
HETATM   32  O   UNK N   1      49.572  57.297  55.619  0.00  0.00    -0.388 OA
HETATM   33  H   UNK N   1      49.145  57.685  54.810  0.00  0.00     0.210 HD
ENDBRANCH  24  32
ENDBRANCH  18  19
ENDBRANCH   6  18
BRANCH  12  34
HETATM   34  O   UNK N   1      45.304  51.546  60.894  0.00  0.00    -0.395 OA
HETATM   35  H   UNK N   1      44.615  51.162  61.495  0.00  0.00     0.210 HD
ENDBRANCH  12  34
TORSDOF 8
ENDMDL
