MODEL 1
REMARK VINA RESULT:      -8.2      0.000      0.000
REMARK  13 active torsions:
REMARK  status: ('A' for Active; 'I' for Inactive)
REMARK    1  A    between atoms: C_3  and  C_32 
REMARK    2  A    between atoms: C_5  and  C_7 
REMARK    3  A    between atoms: C_7  and  C_8 
REMARK    4  A    between atoms: C_8  and  C_9 
REMARK    5  A    between atoms: C_9  and  C_10 
REMARK    6  A    between atoms: C_11  and  C_12 
REMARK    7  A    between atoms: C_12  and  C_14 
REMARK    8  A    between atoms: C_14  and  C_15 
REMARK    9  A    between atoms: C_16  and  C_17 
REMARK   10  A    between atoms: C_17  and  C_18 
REMARK   11  A    between atoms: C_19  and  O_20 
REMARK   12  A    between atoms: C_24  and  O_26 
REMARK   13  A    between atoms: C_32  and  O_33 
ROOT
HETATM    1  C   UNK N   1      39.185  50.240  44.024  0.00  0.00    -0.080 C 
HETATM    2  C   UNK N   1      38.353  50.167  42.943  0.00  0.00     0.052 C 
HETATM    3  C   UNK N   1      40.457  51.047  43.901  0.00  0.00     0.043 C 
ENDROOT
BRANCH   2   4
HETATM    4  C   UNK N   1      37.056  49.435  42.863  0.00  0.00     0.153 C 
HETATM    5  O   UNK N   1      37.023  48.215  42.843  0.00  0.00    -0.293 OA
BRANCH   4   6
HETATM    6  C   UNK N   1      35.754  50.193  42.779  0.00  0.00     0.116 C 
BRANCH   6   7
HETATM    7  C   UNK N   1      34.603  49.433  43.410  0.00  0.00    -0.080 C 
HETATM    8  C   UNK N   1      33.635  50.027  44.149  0.00  0.00    -0.019 C 
HETATM    9  C   UNK N   1      34.564  47.937  43.217  0.00  0.00     0.043 C 
BRANCH   8  10
HETATM   10  C   UNK N   1      33.524  51.515  44.402  0.00  0.00     0.068 C 
BRANCH  10  11
HETATM   11  C   UNK N   1      32.540  52.257  43.512  0.00  0.00    -0.018 A 
HETATM   12  C   UNK N   1      32.129  53.609  43.778  0.00  0.00     0.080 A 
HETATM   13  C   UNK N   1      31.141  54.196  42.955  0.00  0.00    -0.025 A 
HETATM   14  C   UNK N   1      30.599  53.487  41.877  0.00  0.00     0.046 A 
HETATM   15  C   UNK N   1      30.666  55.598  43.225  0.00  0.00     0.051 C 
HETATM   16  C   UNK N   1      31.020  52.192  41.602  0.00  0.00     0.066 A 
HETATM   17  C   UNK N   1      31.969  51.581  42.409  0.00  0.00     0.046 A 
BRANCH  12  18
HETATM   18  O   UNK N   1      32.625  54.399  44.781  0.00  0.00    -0.355 OA
HETATM   19  C   UNK N   1      33.764  55.176  44.819  0.00  0.00     0.210 C 
ENDBRANCH  12  18
BRANCH  16  20
HETATM   20  O   UNK N   1      30.510  51.514  40.555  0.00  0.00    -0.361 OA
HETATM   21  H   UNK N   1      29.807  51.890  40.012  0.00  0.00     0.217 HD
ENDBRANCH  16  20
ENDBRANCH  10  11
ENDBRANCH   8  10
ENDBRANCH   6   7
ENDBRANCH   4   6
ENDBRANCH   2   4
BRANCH   1  22
HETATM   22  C   UNK N   1      38.965  49.482  45.333  0.00  0.00     0.034 C 
BRANCH  22  23
HETATM   23  C   UNK N   1      39.516  48.049  45.339  0.00  0.00     0.007 C 
BRANCH  23  24
HETATM   24  C   UNK N   1      39.959  47.588  46.743  0.00  0.00     0.038 C 
BRANCH  24  25
HETATM   25  C   UNK N   1      40.604  46.158  46.806  0.00  0.00     0.065 C 
HETATM   26  O   UNK N   1      41.178  46.008  48.099  0.00  0.00    -0.364 OA
HETATM   27  C   UNK N   1      40.155  45.521  48.960  0.00  0.00     0.225 C 
HETATM   28  C   UNK N   1      39.169  44.892  48.044  0.00  0.00     0.161 C 
HETATM   29  O   UNK N   1      38.173  44.285  48.406  0.00  0.00    -0.295 OA
HETATM   30  C   UNK N   1      39.567  45.026  46.650  0.00  0.00     0.119 C 
HETATM   31  C   UNK N   1      41.707  46.015  45.744  0.00  0.00     0.046 C 
BRANCH  27  32
HETATM   32  C   UNK N   1      40.751  44.542  50.020  0.00  0.00     0.083 C 
HETATM   33  C   UNK N   1      41.465  43.332  49.371  0.00  0.00     0.048 C 
HETATM   34  C   UNK N   1      41.777  45.291  50.886  0.00  0.00     0.048 C 
BRANCH  32  35
HETATM   35  O   UNK N   1      39.729  44.103  50.887  0.00  0.00    -0.388 OA
HETATM   36  H   UNK N   1      38.855  44.425  50.545  0.00  0.00     0.210 HD
ENDBRANCH  32  35
ENDBRANCH  27  32
ENDBRANCH  24  25
ENDBRANCH  23  24
ENDBRANCH  22  23
ENDBRANCH   1  22
TORSDOF 13
ENDMDL
MODEL 2
REMARK VINA RESULT:      -7.8      1.585      2.189
REMARK  13 active torsions:
REMARK  status: ('A' for Active; 'I' for Inactive)
REMARK    1  A    between atoms: C_3  and  C_32 
REMARK    2  A    between atoms: C_5  and  C_7 
REMARK    3  A    between atoms: C_7  and  C_8 
REMARK    4  A    between atoms: C_8  and  C_9 
REMARK    5  A    between atoms: C_9  and  C_10 
REMARK    6  A    between atoms: C_11  and  C_12 
REMARK    7  A    between atoms: C_12  and  C_14 
REMARK    8  A    between atoms: C_14  and  C_15 
REMARK    9  A    between atoms: C_16  and  C_17 
REMARK   10  A    between atoms: C_17  and  C_18 
REMARK   11  A    between atoms: C_19  and  O_20 
REMARK   12  A    between atoms: C_24  and  O_26 
REMARK   13  A    between atoms: C_32  and  O_33 
ROOT
HETATM    1  C   UNK N   1      38.101  49.816  42.968  0.00  0.00    -0.080 C 
HETATM    2  C   UNK N   1      36.865  50.050  42.435  0.00  0.00     0.052 C 
HETATM    3  C   UNK N   1      39.312  50.353  42.239  0.00  0.00     0.043 C 
ENDROOT
BRANCH   2   4
HETATM    4  C   UNK N   1      35.554  49.616  42.999  0.00  0.00     0.153 C 
HETATM    5  O   UNK N   1      35.234  48.438  43.012  0.00  0.00    -0.293 OA
BRANCH   4   6
HETATM    6  C   UNK N   1      34.582  50.633  43.544  0.00  0.00     0.116 C 
BRANCH   6   7
HETATM    7  C   UNK N   1      33.193  50.056  43.738  0.00  0.00    -0.080 C 
HETATM    8  C   UNK N   1      32.164  50.288  42.886  0.00  0.00    -0.019 C 
HETATM    9  C   UNK N   1      32.955  49.205  44.960  0.00  0.00     0.043 C 
BRANCH   8  10
HETATM   10  C   UNK N   1      32.259  51.092  41.607  0.00  0.00     0.068 C 
BRANCH  10  11
HETATM   11  C   UNK N   1      31.027  51.912  41.259  0.00  0.00    -0.018 A 
HETATM   12  C   UNK N   1      30.731  53.166  41.897  0.00  0.00     0.080 A 
HETATM   13  C   UNK N   1      29.519  53.822  41.584  0.00  0.00    -0.025 A 
HETATM   14  C   UNK N   1      28.639  53.279  40.641  0.00  0.00     0.046 A 
HETATM   15  C   UNK N   1      29.165  55.121  42.256  0.00  0.00     0.051 C 
HETATM   16  C   UNK N   1      28.941  52.082  40.002  0.00  0.00     0.066 A 
HETATM   17  C   UNK N   1      30.111  51.403  40.309  0.00  0.00     0.046 A 
BRANCH  12  18
HETATM   18  O   UNK N   1      31.542  53.800  42.801  0.00  0.00    -0.355 OA
HETATM   19  C   UNK N   1      31.635  53.651  44.170  0.00  0.00     0.210 C 
ENDBRANCH  12  18
BRANCH  16  20
HETATM   20  O   UNK N   1      28.102  51.566  39.083  0.00  0.00    -0.361 OA
HETATM   21  H   UNK N   1      28.131  50.630  38.851  0.00  0.00     0.217 HD
ENDBRANCH  16  20
ENDBRANCH  10  11
ENDBRANCH   8  10
ENDBRANCH   6   7
ENDBRANCH   4   6
ENDBRANCH   2   4
BRANCH   1  22
HETATM   22  C   UNK N   1      38.357  48.965  44.211  0.00  0.00     0.034 C 
BRANCH  22  23
HETATM   23  C   UNK N   1      39.696  49.241  44.907  0.00  0.00     0.007 C 
BRANCH  23  24
HETATM   24  C   UNK N   1      39.823  48.518  46.263  0.00  0.00     0.038 C 
BRANCH  24  25
HETATM   25  C   UNK N   1      41.090  47.607  46.422  0.00  0.00     0.065 C 
HETATM   26  O   UNK N   1      41.112  47.138  47.766  0.00  0.00    -0.364 OA
HETATM   27  C   UNK N   1      40.327  45.953  47.810  0.00  0.00     0.225 C 
HETATM   28  C   UNK N   1      40.313  45.464  46.407  0.00  0.00     0.161 C 
HETATM   29  O   UNK N   1      39.802  44.417  46.041  0.00  0.00    -0.295 OA
HETATM   30  C   UNK N   1      41.046  46.356  45.519  0.00  0.00     0.119 C 
HETATM   31  C   UNK N   1      42.372  48.411  46.147  0.00  0.00     0.046 C 
BRANCH  27  32
HETATM   32  C   UNK N   1      40.928  44.935  48.830  0.00  0.00     0.083 C 
HETATM   33  C   UNK N   1      41.727  45.632  49.958  0.00  0.00     0.048 C 
HETATM   34  C   UNK N   1      39.790  44.132  49.481  0.00  0.00     0.048 C 
BRANCH  32  35
HETATM   35  O   UNK N   1      41.744  44.008  48.150  0.00  0.00    -0.388 OA
HETATM   36  H   UNK N   1      42.641  44.409  48.008  0.00  0.00     0.210 HD
ENDBRANCH  32  35
ENDBRANCH  27  32
ENDBRANCH  24  25
ENDBRANCH  23  24
ENDBRANCH  22  23
ENDBRANCH   1  22
TORSDOF 13
ENDMDL
MODEL 3
REMARK VINA RESULT:      -7.6      0.987      2.261
REMARK  13 active torsions:
REMARK  status: ('A' for Active; 'I' for Inactive)
REMARK    1  A    between atoms: C_3  and  C_32 
REMARK    2  A    between atoms: C_5  and  C_7 
REMARK    3  A    between atoms: C_7  and  C_8 
REMARK    4  A    between atoms: C_8  and  C_9 
REMARK    5  A    between atoms: C_9  and  C_10 
REMARK    6  A    between atoms: C_11  and  C_12 
REMARK    7  A    between atoms: C_12  and  C_14 
REMARK    8  A    between atoms: C_14  and  C_15 
REMARK    9  A    between atoms: C_16  and  C_17 
REMARK   10  A    between atoms: C_17  and  C_18 
REMARK   11  A    between atoms: C_19  and  O_20 
REMARK   12  A    between atoms: C_24  and  O_26 
REMARK   13  A    between atoms: C_32  and  O_33 
ROOT
HETATM    1  C   UNK N   1      38.415  49.891  43.620  0.00  0.00    -0.080 C 
HETATM    2  C   UNK N   1      37.347  50.080  42.789  0.00  0.00     0.052 C 
HETATM    3  C   UNK N   1      39.747  50.487  43.227  0.00  0.00     0.043 C 
ENDROOT
BRANCH   2   4
HETATM    4  C   UNK N   1      35.956  49.585  42.997  0.00  0.00     0.153 C 
HETATM    5  O   UNK N   1      35.665  48.419  42.785  0.00  0.00    -0.293 OA
BRANCH   4   6
HETATM    6  C   UNK N   1      34.869  50.528  43.452  0.00  0.00     0.116 C 
BRANCH   6   7
HETATM    7  C   UNK N   1      33.553  49.814  43.697  0.00  0.00    -0.080 C 
HETATM    8  C   UNK N   1      32.388  50.178  43.108  0.00  0.00    -0.019 C 
HETATM    9  C   UNK N   1      33.554  48.659  44.667  0.00  0.00     0.043 C 
BRANCH   8  10
HETATM   10  C   UNK N   1      32.237  51.291  42.093  0.00  0.00     0.068 C 
BRANCH  10  11
HETATM   11  C   UNK N   1      31.549  52.548  42.600  0.00  0.00    -0.018 A 
HETATM   12  C   UNK N   1      30.678  53.336  41.772  0.00  0.00     0.080 A 
HETATM   13  C   UNK N   1      30.149  54.541  42.289  0.00  0.00    -0.025 A 
HETATM   14  C   UNK N   1      30.439  54.941  43.599  0.00  0.00     0.046 A 
HETATM   15  C   UNK N   1      29.258  55.404  41.438  0.00  0.00     0.051 C 
HETATM   16  C   UNK N   1      31.256  54.162  44.409  0.00  0.00     0.066 A 
HETATM   17  C   UNK N   1      31.811  52.989  43.919  0.00  0.00     0.046 A 
BRANCH  12  18
HETATM   18  O   UNK N   1      30.301  53.013  40.495  0.00  0.00    -0.355 OA
HETATM   19  C   UNK N   1      29.379  52.091  40.046  0.00  0.00     0.210 C 
ENDBRANCH  12  18
BRANCH  16  20
HETATM   20  O   UNK N   1      31.524  54.538  45.675  0.00  0.00    -0.361 OA
HETATM   21  H   UNK N   1      31.404  55.453  45.959  0.00  0.00     0.217 HD
ENDBRANCH  16  20
ENDBRANCH  10  11
ENDBRANCH   8  10
ENDBRANCH   6   7
ENDBRANCH   4   6
ENDBRANCH   2   4
BRANCH   1  22
HETATM   22  C   UNK N   1      38.381  49.034  44.885  0.00  0.00     0.034 C 
BRANCH  22  23
HETATM   23  C   UNK N   1      39.744  48.472  45.311  0.00  0.00     0.007 C 
BRANCH  23  24
HETATM   24  C   UNK N   1      39.684  47.716  46.653  0.00  0.00     0.038 C 
BRANCH  24  25
HETATM   25  C   UNK N   1      40.406  46.323  46.671  0.00  0.00     0.065 C 
HETATM   26  O   UNK N   1      41.034  46.185  47.940  0.00  0.00    -0.364 OA
HETATM   27  C   UNK N   1      40.071  45.632  48.829  0.00  0.00     0.225 C 
HETATM   28  C   UNK N   1      39.086  44.964  47.939  0.00  0.00     0.161 C 
HETATM   29  O   UNK N   1      38.137  44.300  48.327  0.00  0.00    -0.295 OA
HETATM   30  C   UNK N   1      39.425  45.138  46.534  0.00  0.00     0.119 C 
HETATM   31  C   UNK N   1      41.475  46.253  45.567  0.00  0.00     0.046 C 
BRANCH  27  32
HETATM   32  C   UNK N   1      40.756  44.672  49.851  0.00  0.00     0.083 C 
HETATM   33  C   UNK N   1      41.470  43.486  49.160  0.00  0.00     0.048 C 
HETATM   34  C   UNK N   1      41.805  45.453  50.660  0.00  0.00     0.048 C 
BRANCH  32  35
HETATM   35  O   UNK N   1      39.799  44.200  50.774  0.00  0.00    -0.388 OA
HETATM   36  H   UNK N   1      39.837  44.759  51.593  0.00  0.00     0.210 HD
ENDBRANCH  32  35
ENDBRANCH  27  32
ENDBRANCH  24  25
ENDBRANCH  23  24
ENDBRANCH  22  23
ENDBRANCH   1  22
TORSDOF 13
ENDMDL
MODEL 4
REMARK VINA RESULT:      -7.4      1.647     11.167
REMARK  13 active torsions:
REMARK  status: ('A' for Active; 'I' for Inactive)
REMARK    1  A    between atoms: C_3  and  C_32 
REMARK    2  A    between atoms: C_5  and  C_7 
REMARK    3  A    between atoms: C_7  and  C_8 
REMARK    4  A    between atoms: C_8  and  C_9 
REMARK    5  A    between atoms: C_9  and  C_10 
REMARK    6  A    between atoms: C_11  and  C_12 
REMARK    7  A    between atoms: C_12  and  C_14 
REMARK    8  A    between atoms: C_14  and  C_15 
REMARK    9  A    between atoms: C_16  and  C_17 
REMARK   10  A    between atoms: C_17  and  C_18 
REMARK   11  A    between atoms: C_19  and  O_20 
REMARK   12  A    between atoms: C_24  and  O_26 
REMARK   13  A    between atoms: C_32  and  O_33 
ROOT
HETATM    1  C   UNK N   1      38.446  50.044  42.735  0.00  0.00    -0.080 C 
HETATM    2  C   UNK N   1      39.425  50.091  43.687  0.00  0.00     0.052 C 
HETATM    3  C   UNK N   1      38.674  50.776  41.432  0.00  0.00     0.043 C 
ENDROOT
BRANCH   2   4
HETATM    4  C   UNK N   1      39.399  49.434  45.026  0.00  0.00     0.153 C 
HETATM    5  O   UNK N   1      38.879  49.983  45.985  0.00  0.00    -0.293 OA
BRANCH   4   6
HETATM    6  C   UNK N   1      40.040  48.084  45.228  0.00  0.00     0.116 C 
BRANCH   6   7
HETATM    7  C   UNK N   1      41.216  48.142  46.184  0.00  0.00    -0.080 C 
HETATM    8  C   UNK N   1      41.209  47.561  47.409  0.00  0.00    -0.019 C 
HETATM    9  C   UNK N   1      42.437  48.911  45.744  0.00  0.00     0.043 C 
BRANCH   8  10
HETATM   10  C   UNK N   1      40.074  46.734  47.973  0.00  0.00     0.068 C 
BRANCH  10  11
HETATM   11  C   UNK N   1      40.476  45.395  48.569  0.00  0.00    -0.018 A 
HETATM   12  C   UNK N   1      41.268  44.437  47.847  0.00  0.00     0.080 A 
HETATM   13  C   UNK N   1      41.522  43.178  48.436  0.00  0.00    -0.025 A 
HETATM   14  C   UNK N   1      41.042  42.882  49.717  0.00  0.00     0.046 A 
HETATM   15  C   UNK N   1      42.322  42.142  47.694  0.00  0.00     0.051 C 
HETATM   16  C   UNK N   1      40.303  43.820  50.427  0.00  0.00     0.066 A 
HETATM   17  C   UNK N   1      40.016  45.054  49.863  0.00  0.00     0.046 A 
BRANCH  12  18
HETATM   18  O   UNK N   1      41.816  44.643  46.608  0.00  0.00    -0.355 OA
HETATM   19  C   UNK N   1      41.257  44.503  45.354  0.00  0.00     0.210 C 
ENDBRANCH  12  18
BRANCH  16  20
HETATM   20  O   UNK N   1      39.853  43.542  51.666  0.00  0.00    -0.361 OA
HETATM   21  H   UNK N   1      39.228  44.125  52.113  0.00  0.00     0.217 HD
ENDBRANCH  16  20
ENDBRANCH  10  11
ENDBRANCH   8  10
ENDBRANCH   6   7
ENDBRANCH   4   6
ENDBRANCH   2   4
BRANCH   1  22
HETATM   22  C   UNK N   1      37.087  49.374  42.929  0.00  0.00     0.034 C 
BRANCH  22  23
HETATM   23  C   UNK N   1      36.000  50.293  43.505  0.00  0.00     0.007 C 
BRANCH  23  24
HETATM   24  C   UNK N   1      34.606  50.014  42.908  0.00  0.00     0.038 C 
BRANCH  24  25
HETATM   25  C   UNK N   1      33.395  50.345  43.849  0.00  0.00     0.065 C 
HETATM   26  O   UNK N   1      33.628  51.634  44.406  0.00  0.00    -0.364 OA
HETATM   27  C   UNK N   1      33.102  52.588  43.491  0.00  0.00     0.225 C 
HETATM   28  C   UNK N   1      32.105  51.827  42.694  0.00  0.00     0.161 C 
HETATM   29  O   UNK N   1      31.375  52.316  41.846  0.00  0.00    -0.295 OA
HETATM   30  C   UNK N   1      32.053  50.427  43.092  0.00  0.00     0.119 C 
HETATM   31  C   UNK N   1      33.297  49.314  44.987  0.00  0.00     0.046 C 
BRANCH  27  32
HETATM   32  C   UNK N   1      32.503  53.809  44.257  0.00  0.00     0.083 C 
HETATM   33  C   UNK N   1      31.441  53.389  45.300  0.00  0.00     0.048 C 
HETATM   34  C   UNK N   1      33.630  54.549  44.998  0.00  0.00     0.048 C 
BRANCH  32  35
HETATM   35  O   UNK N   1      31.953  54.724  43.335  0.00  0.00    -0.388 OA
HETATM   36  H   UNK N   1      31.073  54.384  43.029  0.00  0.00     0.210 HD
ENDBRANCH  32  35
ENDBRANCH  27  32
ENDBRANCH  24  25
ENDBRANCH  23  24
ENDBRANCH  22  23
ENDBRANCH   1  22
TORSDOF 13
ENDMDL
MODEL 5
REMARK VINA RESULT:      -7.2      2.110     11.164
REMARK  13 active torsions:
REMARK  status: ('A' for Active; 'I' for Inactive)
REMARK    1  A    between atoms: C_3  and  C_32 
REMARK    2  A    between atoms: C_5  and  C_7 
REMARK    3  A    between atoms: C_7  and  C_8 
REMARK    4  A    between atoms: C_8  and  C_9 
REMARK    5  A    between atoms: C_9  and  C_10 
REMARK    6  A    between atoms: C_11  and  C_12 
REMARK    7  A    between atoms: C_12  and  C_14 
REMARK    8  A    between atoms: C_14  and  C_15 
REMARK    9  A    between atoms: C_16  and  C_17 
REMARK   10  A    between atoms: C_17  and  C_18 
REMARK   11  A    between atoms: C_19  and  O_20 
REMARK   12  A    between atoms: C_24  and  O_26 
REMARK   13  A    between atoms: C_32  and  O_33 
ROOT
HETATM    1  C   UNK N   1      38.333  49.863  42.914  0.00  0.00    -0.080 C 
HETATM    2  C   UNK N   1      39.274  50.048  43.888  0.00  0.00     0.052 C 
HETATM    3  C   UNK N   1      38.574  50.478  41.554  0.00  0.00     0.043 C 
ENDROOT
BRANCH   2   4
HETATM    4  C   UNK N   1      39.230  49.520  45.282  0.00  0.00     0.153 C 
HETATM    5  O   UNK N   1      38.673  50.142  46.172  0.00  0.00    -0.293 OA
BRANCH   4   6
HETATM    6  C   UNK N   1      39.900  48.213  45.626  0.00  0.00     0.116 C 
BRANCH   6   7
HETATM    7  C   UNK N   1      41.344  48.400  46.050  0.00  0.00    -0.080 C 
HETATM    8  C   UNK N   1      42.010  47.519  46.837  0.00  0.00    -0.019 C 
HETATM    9  C   UNK N   1      42.053  49.649  45.586  0.00  0.00     0.043 C 
BRANCH   8  10
HETATM   10  C   UNK N   1      41.443  46.213  47.351  0.00  0.00     0.068 C 
BRANCH  10  11
HETATM   11  C   UNK N   1      41.716  44.996  46.482  0.00  0.00    -0.018 A 
HETATM   12  C   UNK N   1      42.070  43.718  47.036  0.00  0.00     0.080 A 
HETATM   13  C   UNK N   1      42.398  42.660  46.158  0.00  0.00    -0.025 A 
HETATM   14  C   UNK N   1      42.342  42.843  44.772  0.00  0.00     0.046 A 
HETATM   15  C   UNK N   1      42.801  41.318  46.706  0.00  0.00     0.051 C 
HETATM   16  C   UNK N   1      41.970  44.070  44.237  0.00  0.00     0.066 A 
HETATM   17  C   UNK N   1      41.669  45.134  45.075  0.00  0.00     0.046 A 
BRANCH  12  18
HETATM   18  O   UNK N   1      42.115  43.425  48.374  0.00  0.00    -0.355 OA
HETATM   19  C   UNK N   1      41.095  43.125  49.253  0.00  0.00     0.210 C 
ENDBRANCH  12  18
BRANCH  16  20
HETATM   20  O   UNK N   1      41.902  44.244  42.903  0.00  0.00    -0.361 OA
HETATM   21  H   UNK N   1      41.206  44.780  42.504  0.00  0.00     0.217 HD
ENDBRANCH  16  20
ENDBRANCH  10  11
ENDBRANCH   8  10
ENDBRANCH   6   7
ENDBRANCH   4   6
ENDBRANCH   2   4
BRANCH   1  22
HETATM   22  C   UNK N   1      37.000  49.149  43.129  0.00  0.00     0.034 C 
BRANCH  22  23
HETATM   23  C   UNK N   1      35.827  50.078  43.470  0.00  0.00     0.007 C 
BRANCH  23  24
HETATM   24  C   UNK N   1      34.470  49.529  42.983  0.00  0.00     0.038 C 
BRANCH  24  25
HETATM   25  C   UNK N   1      33.228  49.949  43.846  0.00  0.00     0.065 C 
HETATM   26  O   UNK N   1      33.471  51.266  44.328  0.00  0.00    -0.364 OA
HETATM   27  C   UNK N   1      33.011  52.170  43.331  0.00  0.00     0.225 C 
HETATM   28  C   UNK N   1      32.031  51.383  42.539  0.00  0.00     0.161 C 
HETATM   29  O   UNK N   1      31.352  51.832  41.629  0.00  0.00    -0.295 OA
HETATM   30  C   UNK N   1      31.923  50.014  43.024  0.00  0.00     0.119 C 
HETATM   31  C   UNK N   1      33.053  48.997  45.041  0.00  0.00     0.046 C 
BRANCH  27  32
HETATM   32  C   UNK N   1      32.412  53.453  43.989  0.00  0.00     0.083 C 
HETATM   33  C   UNK N   1      31.570  53.133  45.247  0.00  0.00     0.048 C 
HETATM   34  C   UNK N   1      33.555  54.393  44.408  0.00  0.00     0.048 C 
BRANCH  32  35
HETATM   35  O   UNK N   1      31.635  54.152  43.042  0.00  0.00    -0.388 OA
HETATM   36  H   UNK N   1      32.237  54.556  42.365  0.00  0.00     0.210 HD
ENDBRANCH  32  35
ENDBRANCH  27  32
ENDBRANCH  24  25
ENDBRANCH  23  24
ENDBRANCH  22  23
ENDBRANCH   1  22
TORSDOF 13
ENDMDL
MODEL 6
REMARK VINA RESULT:      -7.2      2.194     11.602
REMARK  13 active torsions:
REMARK  status: ('A' for Active; 'I' for Inactive)
REMARK    1  A    between atoms: C_3  and  C_32 
REMARK    2  A    between atoms: C_5  and  C_7 
REMARK    3  A    between atoms: C_7  and  C_8 
REMARK    4  A    between atoms: C_8  and  C_9 
REMARK    5  A    between atoms: C_9  and  C_10 
REMARK    6  A    between atoms: C_11  and  C_12 
REMARK    7  A    between atoms: C_12  and  C_14 
REMARK    8  A    between atoms: C_14  and  C_15 
REMARK    9  A    between atoms: C_16  and  C_17 
REMARK   10  A    between atoms: C_17  and  C_18 
REMARK   11  A    between atoms: C_19  and  O_20 
REMARK   12  A    between atoms: C_24  and  O_26 
REMARK   13  A    between atoms: C_32  and  O_33 
ROOT
HETATM    1  C   UNK N   1      34.839  50.589  43.510  0.00  0.00    -0.080 C 
HETATM    2  C   UNK N   1      36.177  50.318  43.458  0.00  0.00     0.052 C 
HETATM    3  C   UNK N   1      34.392  51.899  44.118  0.00  0.00     0.043 C 
ENDROOT
BRANCH   2   4
HETATM    4  C   UNK N   1      36.819  49.096  42.894  0.00  0.00     0.153 C 
HETATM    5  O   UNK N   1      36.199  48.049  42.796  0.00  0.00    -0.293 OA
BRANCH   4   6
HETATM    6  C   UNK N   1      38.261  49.123  42.454  0.00  0.00     0.116 C 
BRANCH   6   7
HETATM    7  C   UNK N   1      39.108  50.042  43.314  0.00  0.00    -0.080 C 
HETATM    8  C   UNK N   1      39.570  49.698  44.541  0.00  0.00    -0.019 C 
HETATM    9  C   UNK N   1      39.420  51.415  42.773  0.00  0.00     0.043 C 
BRANCH   8  10
HETATM   10  C   UNK N   1      39.366  48.350  45.201  0.00  0.00     0.068 C 
BRANCH  10  11
HETATM   11  C   UNK N   1      40.472  47.913  46.147  0.00  0.00    -0.018 A 
HETATM   12  C   UNK N   1      40.241  46.994  47.228  0.00  0.00     0.080 A 
HETATM   13  C   UNK N   1      41.301  46.709  48.119  0.00  0.00    -0.025 A 
HETATM   14  C   UNK N   1      42.564  47.281  47.930  0.00  0.00     0.046 A 
HETATM   15  C   UNK N   1      41.084  45.775  49.279  0.00  0.00     0.051 C 
HETATM   16  C   UNK N   1      42.794  48.144  46.865  0.00  0.00     0.066 A 
HETATM   17  C   UNK N   1      41.765  48.464  45.991  0.00  0.00     0.046 A 
BRANCH  12  18
HETATM   18  O   UNK N   1      39.057  46.352  47.476  0.00  0.00    -0.355 OA
HETATM   19  C   UNK N   1      38.595  45.132  47.026  0.00  0.00     0.210 C 
ENDBRANCH  12  18
BRANCH  16  20
HETATM   20  O   UNK N   1      44.013  48.684  46.674  0.00  0.00    -0.361 OA
HETATM   21  H   UNK N   1      44.813  48.151  46.754  0.00  0.00     0.217 HD
ENDBRANCH  16  20
ENDBRANCH  10  11
ENDBRANCH   8  10
ENDBRANCH   6   7
ENDBRANCH   4   6
ENDBRANCH   2   4
BRANCH   1  22
HETATM   22  C   UNK N   1      33.745  49.614  43.077  0.00  0.00     0.034 C 
BRANCH  22  23
HETATM   23  C   UNK N   1      32.379  50.263  42.815  0.00  0.00     0.007 C 
BRANCH  23  24
HETATM   24  C   UNK N   1      31.291  49.234  42.447  0.00  0.00     0.038 C 
BRANCH  24  25
HETATM   25  C   UNK N   1      30.794  49.287  40.959  0.00  0.00     0.065 C 
HETATM   26  O   UNK N   1      29.399  49.569  40.987  0.00  0.00    -0.364 OA
HETATM   27  C   UNK N   1      29.257  50.984  41.023  0.00  0.00     0.225 C 
HETATM   28  C   UNK N   1      30.538  51.500  40.476  0.00  0.00     0.161 C 
HETATM   29  O   UNK N   1      30.781  52.679  40.270  0.00  0.00    -0.295 OA
HETATM   30  C   UNK N   1      31.457  50.420  40.146  0.00  0.00     0.119 C 
HETATM   31  C   UNK N   1      31.022  47.934  40.264  0.00  0.00     0.046 C 
BRANCH  27  32
HETATM   32  C   UNK N   1      27.997  51.429  40.216  0.00  0.00     0.083 C 
HETATM   33  C   UNK N   1      26.834  50.414  40.329  0.00  0.00     0.048 C 
HETATM   34  C   UNK N   1      27.500  52.782  40.751  0.00  0.00     0.048 C 
BRANCH  32  35
HETATM   35  O   UNK N   1      28.346  51.628  38.865  0.00  0.00    -0.388 OA
HETATM   36  H   UNK N   1      28.908  52.443  38.793  0.00  0.00     0.210 HD
ENDBRANCH  32  35
ENDBRANCH  27  32
ENDBRANCH  24  25
ENDBRANCH  23  24
ENDBRANCH  22  23
ENDBRANCH   1  22
TORSDOF 13
ENDMDL
MODEL 7
REMARK VINA RESULT:      -7.2      1.737      3.650
REMARK  13 active torsions:
REMARK  status: ('A' for Active; 'I' for Inactive)
REMARK    1  A    between atoms: C_3  and  C_32 
REMARK    2  A    between atoms: C_5  and  C_7 
REMARK    3  A    between atoms: C_7  and  C_8 
REMARK    4  A    between atoms: C_8  and  C_9 
REMARK    5  A    between atoms: C_9  and  C_10 
REMARK    6  A    between atoms: C_11  and  C_12 
REMARK    7  A    between atoms: C_12  and  C_14 
REMARK    8  A    between atoms: C_14  and  C_15 
REMARK    9  A    between atoms: C_16  and  C_17 
REMARK   10  A    between atoms: C_17  and  C_18 
REMARK   11  A    between atoms: C_19  and  O_20 
REMARK   12  A    between atoms: C_24  and  O_26 
REMARK   13  A    between atoms: C_32  and  O_33 
ROOT
HETATM    1  C   UNK N   1      40.188  47.196  45.729  0.00  0.00    -0.080 C 
HETATM    2  C   UNK N   1      40.085  48.346  44.999  0.00  0.00     0.052 C 
HETATM    3  C   UNK N   1      41.526  46.492  45.779  0.00  0.00     0.043 C 
ENDROOT
BRANCH   2   4
HETATM    4  C   UNK N   1      38.866  49.189  44.830  0.00  0.00     0.153 C 
HETATM    5  O   UNK N   1      38.754  50.256  45.412  0.00  0.00    -0.293 OA
BRANCH   4   6
HETATM    6  C   UNK N   1      37.731  48.725  43.952  0.00  0.00     0.116 C 
BRANCH   6   7
HETATM    7  C   UNK N   1      37.397  49.728  42.864  0.00  0.00    -0.080 C 
HETATM    8  C   UNK N   1      36.173  50.292  42.722  0.00  0.00    -0.019 C 
HETATM    9  C   UNK N   1      38.487  50.085  41.884  0.00  0.00     0.043 C 
BRANCH   8  10
HETATM   10  C   UNK N   1      34.995  50.057  43.643  0.00  0.00     0.068 C 
BRANCH  10  11
HETATM   11  C   UNK N   1      33.993  51.197  43.726  0.00  0.00    -0.018 A 
HETATM   12  C   UNK N   1      32.823  51.255  42.892  0.00  0.00     0.080 A 
HETATM   13  C   UNK N   1      31.989  52.395  42.965  0.00  0.00    -0.025 A 
HETATM   14  C   UNK N   1      32.277  53.431  43.860  0.00  0.00     0.046 A 
HETATM   15  C   UNK N   1      30.773  52.501  42.085  0.00  0.00     0.051 C 
HETATM   16  C   UNK N   1      33.391  53.359  44.688  0.00  0.00     0.066 A 
HETATM   17  C   UNK N   1      34.242  52.265  44.619  0.00  0.00     0.046 A 
BRANCH  12  18
HETATM   18  O   UNK N   1      32.432  50.279  42.015  0.00  0.00    -0.355 OA
HETATM   19  C   UNK N   1      31.818  49.066  42.250  0.00  0.00     0.210 C 
ENDBRANCH  12  18
BRANCH  16  20
HETATM   20  O   UNK N   1      33.661  54.349  45.560  0.00  0.00    -0.361 OA
HETATM   21  H   UNK N   1      33.768  55.261  45.262  0.00  0.00     0.217 HD
ENDBRANCH  16  20
ENDBRANCH  10  11
ENDBRANCH   8  10
ENDBRANCH   6   7
ENDBRANCH   4   6
ENDBRANCH   2   4
BRANCH   1  22
HETATM   22  C   UNK N   1      39.015  46.512  46.430  0.00  0.00     0.034 C 
BRANCH  22  23
HETATM   23  C   UNK N   1      39.029  46.634  47.960  0.00  0.00     0.007 C 
BRANCH  23  24
HETATM   24  C   UNK N   1      39.493  45.339  48.657  0.00  0.00     0.038 C 
BRANCH  24  25
HETATM   25  C   UNK N   1      40.828  45.457  49.473  0.00  0.00     0.065 C 
HETATM   26  O   UNK N   1      40.492  45.373  50.853  0.00  0.00    -0.364 OA
HETATM   27  C   UNK N   1      40.472  43.992  51.198  0.00  0.00     0.225 C 
HETATM   28  C   UNK N   1      41.316  43.340  50.163  0.00  0.00     0.161 C 
HETATM   29  O   UNK N   1      41.612  42.155  50.154  0.00  0.00    -0.295 OA
HETATM   30  C   UNK N   1      41.810  44.301  49.187  0.00  0.00     0.119 C 
HETATM   31  C   UNK N   1      41.510  46.809  49.201  0.00  0.00     0.046 C 
BRANCH  27  32
HETATM   32  C   UNK N   1      40.984  43.785  52.658  0.00  0.00     0.083 C 
HETATM   33  C   UNK N   1      41.555  45.084  53.274  0.00  0.00     0.048 C 
HETATM   34  C   UNK N   1      39.820  43.309  53.543  0.00  0.00     0.048 C 
BRANCH  32  35
HETATM   35  O   UNK N   1      41.955  42.762  52.678  0.00  0.00    -0.388 OA
HETATM   36  H   UNK N   1      42.544  42.891  53.467  0.00  0.00     0.210 HD
ENDBRANCH  32  35
ENDBRANCH  27  32
ENDBRANCH  24  25
ENDBRANCH  23  24
ENDBRANCH  22  23
ENDBRANCH   1  22
TORSDOF 13
ENDMDL
MODEL 8
REMARK VINA RESULT:      -7.0     13.473     17.631
REMARK  13 active torsions:
REMARK  status: ('A' for Active; 'I' for Inactive)
REMARK    1  A    between atoms: C_3  and  C_32 
REMARK    2  A    between atoms: C_5  and  C_7 
REMARK    3  A    between atoms: C_7  and  C_8 
REMARK    4  A    between atoms: C_8  and  C_9 
REMARK    5  A    between atoms: C_9  and  C_10 
REMARK    6  A    between atoms: C_11  and  C_12 
REMARK    7  A    between atoms: C_12  and  C_14 
REMARK    8  A    between atoms: C_14  and  C_15 
REMARK    9  A    between atoms: C_16  and  C_17 
REMARK   10  A    between atoms: C_17  and  C_18 
REMARK   11  A    between atoms: C_19  and  O_20 
REMARK   12  A    between atoms: C_24  and  O_26 
REMARK   13  A    between atoms: C_32  and  O_33 
ROOT
HETATM    1  C   UNK N   1      30.976  44.147  57.413  0.00  0.00    -0.080 C 
HETATM    2  C   UNK N   1      31.396  45.410  57.720  0.00  0.00     0.052 C 
HETATM    3  C   UNK N   1      32.014  43.117  57.028  0.00  0.00     0.043 C 
ENDROOT
BRANCH   2   4
HETATM    4  C   UNK N   1      30.539  46.560  58.129  0.00  0.00     0.153 C 
HETATM    5  O   UNK N   1      30.136  47.368  57.307  0.00  0.00    -0.293 OA
BRANCH   4   6
HETATM    6  C   UNK N   1      30.172  46.763  59.578  0.00  0.00     0.116 C 
BRANCH   6   7
HETATM    7  C   UNK N   1      28.966  45.938  59.988  0.00  0.00    -0.080 C 
HETATM    8  C   UNK N   1      29.025  44.937  60.900  0.00  0.00    -0.019 C 
HETATM    9  C   UNK N   1      27.650  46.244  59.318  0.00  0.00     0.043 C 
BRANCH   8  10
HETATM   10  C   UNK N   1      30.262  44.537  61.675  0.00  0.00     0.068 C 
BRANCH  10  11
HETATM   11  C   UNK N   1      31.072  43.402  61.071  0.00  0.00    -0.018 A 
HETATM   12  C   UNK N   1      30.473  42.159  60.667  0.00  0.00     0.080 A 
HETATM   13  C   UNK N   1      31.308  41.119  60.199  0.00  0.00    -0.025 A 
HETATM   14  C   UNK N   1      32.690  41.308  60.095  0.00  0.00     0.046 A 
HETATM   15  C   UNK N   1      30.716  39.795  59.796  0.00  0.00     0.051 C 
HETATM   16  C   UNK N   1      33.265  42.521  60.457  0.00  0.00     0.066 A 
HETATM   17  C   UNK N   1      32.473  43.550  60.945  0.00  0.00     0.046 A 
BRANCH  12  18
HETATM   18  O   UNK N   1      29.130  41.888  60.691  0.00  0.00    -0.355 OA
HETATM   19  C   UNK N   1      28.334  41.433  61.721  0.00  0.00     0.210 C 
ENDBRANCH  12  18
BRANCH  16  20
HETATM   20  O   UNK N   1      34.594  42.709  60.344  0.00  0.00    -0.361 OA
HETATM   21  H   UNK N   1      35.112  42.231  59.685  0.00  0.00     0.217 HD
ENDBRANCH  16  20
ENDBRANCH  10  11
ENDBRANCH   8  10
ENDBRANCH   6   7
ENDBRANCH   4   6
ENDBRANCH   2   4
BRANCH   1  22
HETATM   22  C   UNK N   1      29.511  43.720  57.339  0.00  0.00     0.034 C 
BRANCH  22  23
HETATM   23  C   UNK N   1      29.276  42.365  56.656  0.00  0.00     0.007 C 
BRANCH  23  24
HETATM   24  C   UNK N   1      28.385  42.477  55.402  0.00  0.00     0.038 C 
BRANCH  24  25
HETATM   25  C   UNK N   1      28.692  41.438  54.267  0.00  0.00     0.065 C 
HETATM   26  O   UNK N   1      27.473  41.192  53.575  0.00  0.00    -0.364 OA
HETATM   27  C   UNK N   1      27.360  42.181  52.558  0.00  0.00     0.225 C 
HETATM   28  C   UNK N   1      28.755  42.642  52.333  0.00  0.00     0.161 C 
HETATM   29  O   UNK N   1      29.092  43.441  51.473  0.00  0.00    -0.295 OA
HETATM   30  C   UNK N   1      29.694  41.971  53.221  0.00  0.00     0.119 C 
HETATM   31  C   UNK N   1      29.206  40.118  54.867  0.00  0.00     0.046 C 
BRANCH  27  32
HETATM   32  C   UNK N   1      26.675  41.586  51.288  0.00  0.00     0.083 C 
HETATM   33  C   UNK N   1      25.739  40.401  51.623  0.00  0.00     0.048 C 
HETATM   34  C   UNK N   1      25.836  42.677  50.603  0.00  0.00     0.048 C 
BRANCH  32  35
HETATM   35  O   UNK N   1      27.661  41.188  50.361  0.00  0.00    -0.388 OA
HETATM   36  H   UNK N   1      28.069  40.337  50.668  0.00  0.00     0.210 HD
ENDBRANCH  32  35
ENDBRANCH  27  32
ENDBRANCH  24  25
ENDBRANCH  23  24
ENDBRANCH  22  23
ENDBRANCH   1  22
TORSDOF 13
ENDMDL
MODEL 9
REMARK VINA RESULT:      -7.0     13.777     16.643
REMARK  13 active torsions:
REMARK  status: ('A' for Active; 'I' for Inactive)
REMARK    1  A    between atoms: C_3  and  C_32 
REMARK    2  A    between atoms: C_5  and  C_7 
REMARK    3  A    between atoms: C_7  and  C_8 
REMARK    4  A    between atoms: C_8  and  C_9 
REMARK    5  A    between atoms: C_9  and  C_10 
REMARK    6  A    between atoms: C_11  and  C_12 
REMARK    7  A    between atoms: C_12  and  C_14 
REMARK    8  A    between atoms: C_14  and  C_15 
REMARK    9  A    between atoms: C_16  and  C_17 
REMARK   10  A    between atoms: C_17  and  C_18 
REMARK   11  A    between atoms: C_19  and  O_20 
REMARK   12  A    between atoms: C_24  and  O_26 
REMARK   13  A    between atoms: C_32  and  O_33 
ROOT
HETATM    1  C   UNK N   1      31.441  42.826  60.724  0.00  0.00    -0.080 C 
HETATM    2  C   UNK N   1      31.593  42.542  59.397  0.00  0.00     0.052 C 
HETATM    3  C   UNK N   1      30.518  41.955  61.546  0.00  0.00     0.043 C 
ENDROOT
BRANCH   2   4
HETATM    4  C   UNK N   1      32.456  43.270  58.422  0.00  0.00     0.153 C 
HETATM    5  O   UNK N   1      33.625  42.956  58.262  0.00  0.00    -0.293 OA
BRANCH   4   6
HETATM    6  C   UNK N   1      31.906  44.430  57.630  0.00  0.00     0.116 C 
BRANCH   6   7
HETATM    7  C   UNK N   1      30.390  44.436  57.596  0.00  0.00    -0.080 C 
HETATM    8  C   UNK N   1      29.634  45.346  58.258  0.00  0.00    -0.019 C 
HETATM    9  C   UNK N   1      29.704  43.352  56.802  0.00  0.00     0.043 C 
BRANCH   8  10
HETATM   10  C   UNK N   1      30.177  46.506  59.065  0.00  0.00     0.068 C 
BRANCH  10  11
HETATM   11  C   UNK N   1      30.101  47.864  58.389  0.00  0.00    -0.018 A 
HETATM   12  C   UNK N   1      29.405  48.978  58.975  0.00  0.00     0.080 A 
HETATM   13  C   UNK N   1      29.302  50.181  58.241  0.00  0.00    -0.025 A 
HETATM   14  C   UNK N   1      29.899  50.300  56.981  0.00  0.00     0.046 A 
HETATM   15  C   UNK N   1      28.555  51.356  58.813  0.00  0.00     0.051 C 
HETATM   16  C   UNK N   1      30.598  49.233  56.429  0.00  0.00     0.066 A 
HETATM   17  C   UNK N   1      30.692  48.031  57.115  0.00  0.00     0.046 A 
BRANCH  12  18
HETATM   18  O   UNK N   1      28.822  48.978  60.215  0.00  0.00    -0.355 OA
HETATM   19  C   UNK N   1      27.641  48.407  60.642  0.00  0.00     0.210 C 
ENDBRANCH  12  18
BRANCH  16  20
HETATM   20  O   UNK N   1      31.185  49.350  55.222  0.00  0.00    -0.361 OA
HETATM   21  H   UNK N   1      32.114  49.124  55.095  0.00  0.00     0.217 HD
ENDBRANCH  16  20
ENDBRANCH  10  11
ENDBRANCH   8  10
ENDBRANCH   6   7
ENDBRANCH   4   6
ENDBRANCH   2   4
BRANCH   1  22
HETATM   22  C   UNK N   1      32.071  44.029  61.426  0.00  0.00     0.034 C 
BRANCH  22  23
HETATM   23  C   UNK N   1      32.965  43.672  62.621  0.00  0.00     0.007 C 
BRANCH  23  24
HETATM   24  C   UNK N   1      34.376  44.285  62.514  0.00  0.00     0.038 C 
BRANCH  24  25
HETATM   25  C   UNK N   1      34.825  45.154  63.741  0.00  0.00     0.065 C 
HETATM   26  O   UNK N   1      36.221  44.943  63.923  0.00  0.00    -0.364 OA
HETATM   27  C   UNK N   1      36.900  45.875  63.089  0.00  0.00     0.225 C 
HETATM   28  C   UNK N   1      35.907  46.955  62.854  0.00  0.00     0.161 C 
HETATM   29  O   UNK N   1      36.134  47.986  62.242  0.00  0.00    -0.295 OA
HETATM   30  C   UNK N   1      34.635  46.668  63.504  0.00  0.00     0.119 C 
HETATM   31  C   UNK N   1      34.078  44.721  65.013  0.00  0.00     0.046 C 
BRANCH  27  32
HETATM   32  C   UNK N   1      38.217  46.361  63.771  0.00  0.00     0.083 C 
HETATM   33  C   UNK N   1      37.952  47.143  65.079  0.00  0.00     0.048 C 
HETATM   34  C   UNK N   1      39.094  45.145  64.112  0.00  0.00     0.048 C 
BRANCH  32  35
HETATM   35  O   UNK N   1      38.954  47.153  62.866  0.00  0.00    -0.388 OA
HETATM   36  H   UNK N   1      38.817  48.110  63.088  0.00  0.00     0.210 HD
ENDBRANCH  32  35
ENDBRANCH  27  32
ENDBRANCH  24  25
ENDBRANCH  23  24
ENDBRANCH  22  23
ENDBRANCH   1  22
TORSDOF 13
ENDMDL
