MODEL 1
REMARK VINA RESULT:      -7.6      0.000      0.000
REMARK  6 active torsions:
REMARK  status: ('A' for Active; 'I' for Inactive)
REMARK    1  A    between atoms: C_2  and  O_3 
REMARK    2  A    between atoms: C_2  and  C_5 
REMARK    3  A    between atoms: C_6  and  C_7 
REMARK    4  A    between atoms: C_12  and  C_13 
REMARK    5  A    between atoms: C_13  and  C_14 
REMARK    6  A    between atoms: C_14  and  O_15 
ROOT
HETATM    1  C   UNK N   1      40.372  46.458  47.611  0.00  0.00    -0.035 A 
HETATM    2  C   UNK N   1      41.390  46.315  48.587  0.00  0.00     0.021 A 
HETATM    3  C   UNK N   1      41.209  45.406  49.625  0.00  0.00    -0.021 A 
HETATM    4  C   UNK N   1      40.079  44.671  49.741  0.00  0.00     0.075 A 
HETATM    5  O   UNK N   1      40.124  43.852  50.794  0.00  0.00    -0.345 OA
HETATM    6  C   UNK N   1      41.381  43.887  51.387  0.00  0.00     0.139 C 
HETATM    7  C   UNK N   1      42.121  45.113  50.751  0.00  0.00     0.074 C 
HETATM    8  C   UNK N   1      39.036  44.790  48.827  0.00  0.00     0.038 A 
HETATM    9  C   UNK N   1      39.183  45.692  47.753  0.00  0.00     0.014 A 
ENDROOT
BRANCH   1  10
HETATM   10  C   UNK N   1      40.517  47.369  46.431  0.00  0.00     0.017 C 
HETATM   11  C   UNK N   1      39.484  48.049  45.879  0.00  0.00     0.083 C 
BRANCH  11  12
HETATM   12  C   UNK N   1      39.658  48.985  44.743  0.00  0.00     0.282 C 
HETATM   13  O   UNK N   1      40.696  49.615  44.607  0.00  0.00    -0.260 OA
BRANCH  12  14
HETATM   14  O   UNK N   1      38.626  49.153  43.871  0.00  0.00    -0.323 OA
HETATM   15  C   UNK N   1      38.782  49.609  42.577  0.00  0.00     0.213 C 
ENDBRANCH  12  14
ENDBRANCH  11  12
ENDBRANCH   1  10
BRANCH   6  16
HETATM   16  C   UNK N   1      41.340  43.835  52.935  0.00  0.00     0.035 C 
HETATM   17  C   UNK N   1      42.098  42.628  53.508  0.00  0.00     0.015 C 
BRANCH  16  18
HETATM   18  C   UNK N   1      39.891  43.856  53.465  0.00  0.00     0.170 C 
BRANCH  18  19
HETATM   19  O   UNK N   1      39.265  42.613  53.292  0.00  0.00    -0.400 OA
HETATM   20  H   UNK N   1      39.486  42.307  52.375  0.00  0.00     0.209 HD
ENDBRANCH  18  19
ENDBRANCH  16  18
ENDBRANCH   6  16
TORSDOF 6
ENDMDL
MODEL 2
REMARK VINA RESULT:      -7.5      1.250      1.990
REMARK  6 active torsions:
REMARK  status: ('A' for Active; 'I' for Inactive)
REMARK    1  A    between atoms: C_2  and  O_3 
REMARK    2  A    between atoms: C_2  and  C_5 
REMARK    3  A    between atoms: C_6  and  C_7 
REMARK    4  A    between atoms: C_12  and  C_13 
REMARK    5  A    between atoms: C_13  and  C_14 
REMARK    6  A    between atoms: C_14  and  O_15 
ROOT
HETATM    1  C   UNK N   1      41.250  46.936  47.694  0.00  0.00    -0.035 A 
HETATM    2  C   UNK N   1      40.329  45.994  48.219  0.00  0.00     0.021 A 
HETATM    3  C   UNK N   1      40.556  45.461  49.484  0.00  0.00    -0.021 A 
HETATM    4  C   UNK N   1      41.642  45.797  50.218  0.00  0.00     0.075 A 
HETATM    5  O   UNK N   1      41.651  45.185  51.404  0.00  0.00    -0.345 OA
HETATM    6  C   UNK N   1      40.466  44.486  51.602  0.00  0.00     0.139 C 
HETATM    7  C   UNK N   1      39.746  44.460  50.211  0.00  0.00     0.074 C 
HETATM    8  C   UNK N   1      42.592  46.696  49.741  0.00  0.00     0.038 A 
HETATM    9  C   UNK N   1      42.396  47.269  48.468  0.00  0.00     0.014 A 
ENDROOT
BRANCH   1  10
HETATM   10  C   UNK N   1      41.046  47.602  46.368  0.00  0.00     0.017 C 
HETATM   11  C   UNK N   1      39.865  48.127  45.968  0.00  0.00     0.083 C 
BRANCH  11  12
HETATM   12  C   UNK N   1      39.698  48.827  44.672  0.00  0.00     0.282 C 
HETATM   13  O   UNK N   1      40.503  49.671  44.310  0.00  0.00    -0.260 OA
BRANCH  12  14
HETATM   14  O   UNK N   1      38.610  48.534  43.907  0.00  0.00    -0.323 OA
HETATM   15  C   UNK N   1      38.115  49.371  42.927  0.00  0.00     0.213 C 
ENDBRANCH  12  14
ENDBRANCH  11  12
ENDBRANCH   1  10
BRANCH   6  16
HETATM   16  C   UNK N   1      40.660  43.119  52.303  0.00  0.00     0.035 C 
HETATM   17  C   UNK N   1      39.437  42.698  53.133  0.00  0.00     0.015 C 
BRANCH  16  18
HETATM   18  C   UNK N   1      41.931  43.106  53.180  0.00  0.00     0.170 C 
BRANCH  18  19
HETATM   19  O   UNK N   1      42.046  44.287  53.928  0.00  0.00    -0.400 OA
HETATM   20  H   UNK N   1      41.264  44.316  54.538  0.00  0.00     0.209 HD
ENDBRANCH  18  19
ENDBRANCH  16  18
ENDBRANCH   6  16
TORSDOF 6
ENDMDL
MODEL 3
REMARK VINA RESULT:      -7.2      1.410      8.220
REMARK  6 active torsions:
REMARK  status: ('A' for Active; 'I' for Inactive)
REMARK    1  A    between atoms: C_2  and  O_3 
REMARK    2  A    between atoms: C_2  and  C_5 
REMARK    3  A    between atoms: C_6  and  C_7 
REMARK    4  A    between atoms: C_12  and  C_13 
REMARK    5  A    between atoms: C_13  and  C_14 
REMARK    6  A    between atoms: C_14  and  O_15 
ROOT
HETATM    1  C   UNK N   1      41.260  45.926  49.084  0.00  0.00    -0.035 A 
HETATM    2  C   UNK N   1      40.166  46.107  48.200  0.00  0.00     0.021 A 
HETATM    3  C   UNK N   1      40.298  46.993  47.135  0.00  0.00    -0.021 A 
HETATM    4  C   UNK N   1      41.431  47.703  46.932  0.00  0.00     0.075 A 
HETATM    5  O   UNK N   1      41.348  48.474  45.846  0.00  0.00    -0.345 OA
HETATM    6  C   UNK N   1      40.170  48.218  45.154  0.00  0.00     0.139 C 
HETATM    7  C   UNK N   1      39.289  47.348  46.114  0.00  0.00     0.074 C 
HETATM    8  C   UNK N   1      42.526  47.584  47.784  0.00  0.00     0.038 A 
HETATM    9  C   UNK N   1      42.440  46.689  48.869  0.00  0.00     0.014 A 
ENDROOT
BRANCH   1  10
HETATM   10  C   UNK N   1      41.221  44.947  50.217  0.00  0.00     0.017 C 
HETATM   11  C   UNK N   1      41.615  45.243  51.477  0.00  0.00     0.083 C 
BRANCH  11  12
HETATM   12  C   UNK N   1      41.520  44.275  52.595  0.00  0.00     0.282 C 
HETATM   13  O   UNK N   1      42.231  44.388  53.582  0.00  0.00    -0.260 OA
BRANCH  12  14
HETATM   14  O   UNK N   1      40.646  43.235  52.486  0.00  0.00    -0.323 OA
HETATM   15  C   UNK N   1      39.658  42.966  53.412  0.00  0.00     0.213 C 
ENDBRANCH  12  14
ENDBRANCH  11  12
ENDBRANCH   1  10
BRANCH   6  16
HETATM   16  C   UNK N   1      39.503  49.487  44.568  0.00  0.00     0.035 C 
HETATM   17  C   UNK N   1      38.784  50.327  45.635  0.00  0.00     0.015 C 
BRANCH  16  18
HETATM   18  C   UNK N   1      38.534  49.140  43.418  0.00  0.00     0.170 C 
BRANCH  18  19
HETATM   19  O   UNK N   1      39.121  49.380  42.167  0.00  0.00    -0.400 OA
HETATM   20  H   UNK N   1      40.093  49.215  42.270  0.00  0.00     0.209 HD
ENDBRANCH  18  19
ENDBRANCH  16  18
ENDBRANCH   6  16
TORSDOF 6
ENDMDL
MODEL 4
REMARK VINA RESULT:      -6.4      1.859      2.857
REMARK  6 active torsions:
REMARK  status: ('A' for Active; 'I' for Inactive)
REMARK    1  A    between atoms: C_2  and  O_3 
REMARK    2  A    between atoms: C_2  and  C_5 
REMARK    3  A    between atoms: C_6  and  C_7 
REMARK    4  A    between atoms: C_12  and  C_13 
REMARK    5  A    between atoms: C_13  and  C_14 
REMARK    6  A    between atoms: C_14  and  O_15 
ROOT
HETATM    1  C   UNK N   1      40.658  47.828  46.146  0.00  0.00    -0.035 A 
HETATM    2  C   UNK N   1      39.740  46.921  46.733  0.00  0.00     0.021 A 
HETATM    3  C   UNK N   1      40.096  46.264  47.907  0.00  0.00    -0.021 A 
HETATM    4  C   UNK N   1      41.302  46.450  48.492  0.00  0.00     0.075 A 
HETATM    5  O   UNK N   1      41.426  45.740  49.616  0.00  0.00    -0.345 OA
HETATM    6  C   UNK N   1      40.223  45.122  49.937  0.00  0.00     0.139 C 
HETATM    7  C   UNK N   1      39.312  45.271  48.671  0.00  0.00     0.074 C 
HETATM    8  C   UNK N   1      42.251  47.310  47.945  0.00  0.00     0.038 A 
HETATM    9  C   UNK N   1      41.927  48.004  46.762  0.00  0.00     0.014 A 
ENDROOT
BRANCH   1  10
HETATM   10  C   UNK N   1      40.327  48.619  44.918  0.00  0.00     0.017 C 
HETATM   11  C   UNK N   1      39.187  49.334  44.772  0.00  0.00     0.083 C 
BRANCH  11  12
HETATM   12  C   UNK N   1      38.903  50.151  43.568  0.00  0.00     0.282 C 
HETATM   13  O   UNK N   1      39.728  50.946  43.144  0.00  0.00    -0.260 OA
BRANCH  12  14
HETATM   14  O   UNK N   1      37.690  50.022  42.962  0.00  0.00    -0.323 OA
HETATM   15  C   UNK N   1      37.142  48.808  42.598  0.00  0.00     0.213 C 
ENDBRANCH  12  14
ENDBRANCH  11  12
ENDBRANCH   1  10
BRANCH   6  16
HETATM   16  C   UNK N   1      40.391  43.689  50.500  0.00  0.00     0.035 C 
HETATM   17  C   UNK N   1      40.197  43.621  52.022  0.00  0.00     0.015 C 
BRANCH  16  18
HETATM   18  C   UNK N   1      41.755  43.082  50.107  0.00  0.00     0.170 C 
BRANCH  18  19
HETATM   19  O   UNK N   1      41.941  43.102  48.717  0.00  0.00    -0.400 OA
HETATM   20  H   UNK N   1      41.316  42.433  48.335  0.00  0.00     0.209 HD
ENDBRANCH  18  19
ENDBRANCH  16  18
ENDBRANCH   6  16
TORSDOF 6
ENDMDL
MODEL 5
REMARK VINA RESULT:      -5.8      3.024      3.855
REMARK  6 active torsions:
REMARK  status: ('A' for Active; 'I' for Inactive)
REMARK    1  A    between atoms: C_2  and  O_3 
REMARK    2  A    between atoms: C_2  and  C_5 
REMARK    3  A    between atoms: C_6  and  C_7 
REMARK    4  A    between atoms: C_12  and  C_13 
REMARK    5  A    between atoms: C_13  and  C_14 
REMARK    6  A    between atoms: C_14  and  O_15 
ROOT
HETATM    1  C   UNK N   1      41.926  45.309  47.905  0.00  0.00    -0.035 A 
HETATM    2  C   UNK N   1      41.316  44.272  48.655  0.00  0.00     0.021 A 
HETATM    3  C   UNK N   1      41.146  44.439  50.026  0.00  0.00    -0.021 A 
HETATM    4  C   UNK N   1      41.567  45.554  50.667  0.00  0.00     0.075 A 
HETATM    5  O   UNK N   1      41.287  45.514  51.971  0.00  0.00    -0.345 OA
HETATM    6  C   UNK N   1      40.514  44.398  52.271  0.00  0.00     0.139 C 
HETATM    7  C   UNK N   1      40.560  43.490  50.995  0.00  0.00     0.074 C 
HETATM    8  C   UNK N   1      42.196  46.592  49.985  0.00  0.00     0.038 A 
HETATM    9  C   UNK N   1      42.378  46.468  48.592  0.00  0.00     0.014 A 
ENDROOT
BRANCH   1  10
HETATM   10  C   UNK N   1      42.090  45.232  46.418  0.00  0.00     0.017 C 
HETATM   11  C   UNK N   1      42.192  44.068  45.735  0.00  0.00     0.083 C 
BRANCH  11  12
HETATM   12  C   UNK N   1      42.303  44.013  44.258  0.00  0.00     0.282 C 
HETATM   13  O   UNK N   1      41.558  44.676  43.551  0.00  0.00    -0.260 OA
BRANCH  12  14
HETATM   14  O   UNK N   1      43.229  43.184  43.702  0.00  0.00    -0.323 OA
HETATM   15  C   UNK N   1      44.153  42.467  44.436  0.00  0.00     0.213 C 
ENDBRANCH  12  14
ENDBRANCH  11  12
ENDBRANCH   1  10
BRANCH   6  16
HETATM   16  C   UNK N   1      40.892  43.721  53.612  0.00  0.00     0.035 C 
HETATM   17  C   UNK N   1      41.999  42.668  53.455  0.00  0.00     0.015 C 
BRANCH  16  18
HETATM   18  C   UNK N   1      39.658  43.102  54.303  0.00  0.00     0.170 C 
BRANCH  18  19
HETATM   19  O   UNK N   1      38.973  42.233  53.439  0.00  0.00    -0.400 OA
HETATM   20  H   UNK N   1      39.637  41.901  52.782  0.00  0.00     0.209 HD
ENDBRANCH  18  19
ENDBRANCH  16  18
ENDBRANCH   6  16
TORSDOF 6
ENDMDL
MODEL 6
REMARK VINA RESULT:      -5.5      1.463      8.106
REMARK  6 active torsions:
REMARK  status: ('A' for Active; 'I' for Inactive)
REMARK    1  A    between atoms: C_2  and  O_3 
REMARK    2  A    between atoms: C_2  and  C_5 
REMARK    3  A    between atoms: C_6  and  C_7 
REMARK    4  A    between atoms: C_12  and  C_13 
REMARK    5  A    between atoms: C_13  and  C_14 
REMARK    6  A    between atoms: C_14  and  O_15 
ROOT
HETATM    1  C   UNK N   1      41.028  45.533  48.377  0.00  0.00    -0.035 A 
HETATM    2  C   UNK N   1      40.133  46.625  48.253  0.00  0.00     0.021 A 
HETATM    3  C   UNK N   1      39.901  47.168  46.992  0.00  0.00    -0.021 A 
HETATM    4  C   UNK N   1      40.522  46.699  45.887  0.00  0.00     0.075 A 
HETATM    5  O   UNK N   1      40.140  47.349  44.786  0.00  0.00    -0.345 OA
HETATM    6  C   UNK N   1      39.103  48.229  45.074  0.00  0.00     0.139 C 
HETATM    7  C   UNK N   1      39.032  48.310  46.637  0.00  0.00     0.074 C 
HETATM    8  C   UNK N   1      41.431  45.646  45.955  0.00  0.00     0.038 A 
HETATM    9  C   UNK N   1      41.687  45.059  47.210  0.00  0.00     0.014 A 
ENDROOT
BRANCH   1  10
HETATM   10  C   UNK N   1      41.285  44.854  49.688  0.00  0.00     0.017 C 
HETATM   11  C   UNK N   1      40.337  44.677  50.638  0.00  0.00     0.083 C 
BRANCH  11  12
HETATM   12  C   UNK N   1      40.600  43.957  51.906  0.00  0.00     0.282 C 
HETATM   13  O   UNK N   1      39.814  43.118  52.322  0.00  0.00    -0.260 OA
BRANCH  12  14
HETATM   14  O   UNK N   1      41.718  44.272  52.617  0.00  0.00    -0.323 OA
HETATM   15  C   UNK N   1      42.183  45.562  52.780  0.00  0.00     0.213 C 
ENDBRANCH  12  14
ENDBRANCH  11  12
ENDBRANCH   1  10
BRANCH   6  16
HETATM   16  C   UNK N   1      39.204  49.578  44.318  0.00  0.00     0.035 C 
HETATM   17  C   UNK N   1      38.982  49.429  42.805  0.00  0.00     0.015 C 
BRANCH  16  18
HETATM   18  C   UNK N   1      40.548  50.284  44.594  0.00  0.00     0.170 C 
BRANCH  18  19
HETATM   19  O   UNK N   1      40.526  51.615  44.150  0.00  0.00    -0.400 OA
HETATM   20  H   UNK N   1      40.032  52.136  44.834  0.00  0.00     0.209 HD
ENDBRANCH  18  19
ENDBRANCH  16  18
ENDBRANCH   6  16
TORSDOF 6
ENDMDL
MODEL 7
REMARK VINA RESULT:      -5.5     11.939     14.906
REMARK  6 active torsions:
REMARK  status: ('A' for Active; 'I' for Inactive)
REMARK    1  A    between atoms: C_2  and  O_3 
REMARK    2  A    between atoms: C_2  and  C_5 
REMARK    3  A    between atoms: C_6  and  C_7 
REMARK    4  A    between atoms: C_12  and  C_13 
REMARK    5  A    between atoms: C_13  and  C_14 
REMARK    6  A    between atoms: C_14  and  O_15 
ROOT
HETATM    1  C   UNK N   1      33.336  54.959  45.037  0.00  0.00    -0.035 A 
HETATM    2  C   UNK N   1      32.549  55.674  44.099  0.00  0.00     0.021 A 
HETATM    3  C   UNK N   1      31.744  54.965  43.212  0.00  0.00    -0.021 A 
HETATM    4  C   UNK N   1      31.709  53.612  43.204  0.00  0.00     0.075 A 
HETATM    5  O   UNK N   1      30.859  53.141  42.289  0.00  0.00    -0.345 OA
HETATM    6  C   UNK N   1      30.146  54.181  41.704  0.00  0.00     0.139 C 
HETATM    7  C   UNK N   1      30.868  55.498  42.148  0.00  0.00     0.074 C 
HETATM    8  C   UNK N   1      32.481  52.859  44.085  0.00  0.00     0.038 A 
HETATM    9  C   UNK N   1      33.302  53.538  45.009  0.00  0.00     0.014 A 
ENDROOT
BRANCH   1  10
HETATM   10  C   UNK N   1      34.180  55.649  46.064  0.00  0.00     0.017 C 
HETATM   11  C   UNK N   1      33.702  56.576  46.927  0.00  0.00     0.083 C 
BRANCH  11  12
HETATM   12  C   UNK N   1      34.544  57.209  47.969  0.00  0.00     0.282 C 
HETATM   13  O   UNK N   1      35.494  56.611  48.452  0.00  0.00    -0.260 OA
BRANCH  12  14
HETATM   14  O   UNK N   1      34.218  58.458  48.403  0.00  0.00    -0.323 OA
HETATM   15  C   UNK N   1      32.955  58.814  48.834  0.00  0.00     0.213 C 
ENDBRANCH  12  14
ENDBRANCH  11  12
ENDBRANCH   1  10
BRANCH   6  16
HETATM   16  C   UNK N   1      29.918  53.999  40.183  0.00  0.00     0.035 C 
HETATM   17  C   UNK N   1      29.779  52.525  39.774  0.00  0.00     0.015 C 
BRANCH  16  18
HETATM   18  C   UNK N   1      31.031  54.680  39.357  0.00  0.00     0.170 C 
BRANCH  18  19
HETATM   19  O   UNK N   1      30.693  54.739  37.997  0.00  0.00    -0.400 OA
HETATM   20  H   UNK N   1      31.124  53.958  37.562  0.00  0.00     0.209 HD
ENDBRANCH  18  19
ENDBRANCH  16  18
ENDBRANCH   6  16
TORSDOF 6
ENDMDL
MODEL 8
REMARK VINA RESULT:      -5.2      6.406     11.970
REMARK  6 active torsions:
REMARK  status: ('A' for Active; 'I' for Inactive)
REMARK    1  A    between atoms: C_2  and  O_3 
REMARK    2  A    between atoms: C_2  and  C_5 
REMARK    3  A    between atoms: C_6  and  C_7 
REMARK    4  A    between atoms: C_12  and  C_13 
REMARK    5  A    between atoms: C_13  and  C_14 
REMARK    6  A    between atoms: C_14  and  O_15 
ROOT
HETATM    1  C   UNK N   1      34.772  50.322  43.427  0.00  0.00    -0.035 A 
HETATM    2  C   UNK N   1      34.758  51.664  43.885  0.00  0.00     0.021 A 
HETATM    3  C   UNK N   1      33.543  52.340  43.956  0.00  0.00    -0.021 A 
HETATM    4  C   UNK N   1      32.380  51.761  43.581  0.00  0.00     0.075 A 
HETATM    5  O   UNK N   1      31.339  52.579  43.749  0.00  0.00    -0.345 OA
HETATM    6  C   UNK N   1      31.733  53.743  44.399  0.00  0.00     0.139 C 
HETATM    7  C   UNK N   1      33.299  53.735  44.380  0.00  0.00     0.074 C 
HETATM    8  C   UNK N   1      32.339  50.455  43.099  0.00  0.00     0.038 A 
HETATM    9  C   UNK N   1      33.545  49.730  43.020  0.00  0.00     0.014 A 
ENDROOT
BRANCH   1  10
HETATM   10  C   UNK N   1      36.028  49.506  43.378  0.00  0.00     0.017 C 
HETATM   11  C   UNK N   1      37.263  50.041  43.235  0.00  0.00     0.083 C 
BRANCH  11  12
HETATM   12  C   UNK N   1      38.496  49.219  43.240  0.00  0.00     0.282 C 
HETATM   13  O   UNK N   1      39.341  49.356  42.368  0.00  0.00    -0.260 OA
BRANCH  12  14
HETATM   14  O   UNK N   1      38.655  48.285  44.218  0.00  0.00    -0.323 OA
HETATM   15  C   UNK N   1      39.600  48.378  45.221  0.00  0.00     0.213 C 
ENDBRANCH  12  14
ENDBRANCH  11  12
ENDBRANCH   1  10
BRANCH   6  16
HETATM   16  C   UNK N   1      31.044  55.021  43.858  0.00  0.00     0.035 C 
HETATM   17  C   UNK N   1      29.513  54.902  43.826  0.00  0.00     0.015 C 
BRANCH  16  18
HETATM   18  C   UNK N   1      31.580  55.407  42.462  0.00  0.00     0.170 C 
BRANCH  18  19
HETATM   19  O   UNK N   1      31.018  54.602  41.460  0.00  0.00    -0.400 OA
HETATM   20  H   UNK N   1      30.780  53.739  41.887  0.00  0.00     0.209 HD
ENDBRANCH  18  19
ENDBRANCH  16  18
ENDBRANCH   6  16
TORSDOF 6
ENDMDL
MODEL 9
REMARK VINA RESULT:      -5.1     12.259     13.562
REMARK  6 active torsions:
REMARK  status: ('A' for Active; 'I' for Inactive)
REMARK    1  A    between atoms: C_2  and  O_3 
REMARK    2  A    between atoms: C_2  and  C_5 
REMARK    3  A    between atoms: C_6  and  C_7 
REMARK    4  A    between atoms: C_12  and  C_13 
REMARK    5  A    between atoms: C_13  and  C_14 
REMARK    6  A    between atoms: C_14  and  O_15 
ROOT
HETATM    1  C   UNK N   1      30.198  46.996  58.100  0.00  0.00    -0.035 A 
HETATM    2  C   UNK N   1      30.963  45.990  57.458  0.00  0.00     0.021 A 
HETATM    3  C   UNK N   1      31.331  44.858  58.179  0.00  0.00    -0.021 A 
HETATM    4  C   UNK N   1      31.000  44.702  59.482  0.00  0.00     0.075 A 
HETATM    5  O   UNK N   1      31.436  43.539  59.971  0.00  0.00    -0.345 OA
HETATM    6  C   UNK N   1      31.982  42.758  58.959  0.00  0.00     0.139 C 
HETATM    7  C   UNK N   1      32.137  43.706  57.722  0.00  0.00     0.074 C 
HETATM    8  C   UNK N   1      30.273  45.670  60.169  0.00  0.00     0.038 A 
HETATM    9  C   UNK N   1      29.870  46.828  59.473  0.00  0.00     0.014 A 
ENDROOT
BRANCH   1  10
HETATM   10  C   UNK N   1      29.711  48.214  57.377  0.00  0.00     0.017 C 
HETATM   11  C   UNK N   1      29.974  49.479  57.779  0.00  0.00     0.083 C 
BRANCH  11  12
HETATM   12  C   UNK N   1      29.524  50.671  57.021  0.00  0.00     0.282 C 
HETATM   13  O   UNK N   1      28.469  51.223  57.294  0.00  0.00    -0.260 OA
BRANCH  12  14
HETATM   14  O   UNK N   1      30.295  51.119  55.991  0.00  0.00    -0.323 OA
HETATM   15  C   UNK N   1      30.046  50.826  54.665  0.00  0.00     0.213 C 
ENDBRANCH  12  14
ENDBRANCH  11  12
ENDBRANCH   1  10
BRANCH   6  16
HETATM   16  C   UNK N   1      33.249  41.977  59.391  0.00  0.00     0.035 C 
HETATM   17  C   UNK N   1      32.928  40.782  60.301  0.00  0.00     0.015 C 
BRANCH  16  18
HETATM   18  C   UNK N   1      34.282  42.903  60.068  0.00  0.00     0.170 C 
BRANCH  18  19
HETATM   19  O   UNK N   1      35.214  43.392  59.140  0.00  0.00    -0.400 OA
HETATM   20  H   UNK N   1      34.805  44.191  58.718  0.00  0.00     0.209 HD
ENDBRANCH  18  19
ENDBRANCH  16  18
ENDBRANCH   6  16
TORSDOF 6
ENDMDL
