MODEL 1
REMARK VINA RESULT:      -8.2      0.000      0.000
REMARK  8 active torsions:
REMARK  status: ('A' for Active; 'I' for Inactive)
REMARK    1  A    between atoms: C_2  and  C_3 
REMARK    2  A    between atoms: C_2  and  C_11 
REMARK    3  A    between atoms: C_6  and  O_7 
REMARK    4  A    between atoms: C_11  and  C_12 
REMARK    5  A    between atoms: C_12  and  O_13 
REMARK    6  A    between atoms: C_12  and  C_15 
REMARK    7  A    between atoms: C_15  and  C_16 
REMARK    8  A    between atoms: C_16  and  C_17 
ROOT
HETATM    1  C   UNK N   1      40.684  46.468  47.648  0.00  0.00     0.115 C 
ENDROOT
BRANCH   1   2
HETATM    2  C   UNK N   1      40.950  46.159  46.188  0.00  0.00     0.162 C 
HETATM    3  O   UNK N   1      40.555  46.927  45.325  0.00  0.00    -0.292 OA
BRANCH   2   4
HETATM    4  C   UNK N   1      41.561  44.854  45.787  0.00  0.00     0.010 A 
HETATM    5  C   UNK N   1      41.682  43.821  46.738  0.00  0.00     0.018 A 
HETATM    6  C   UNK N   1      42.319  42.623  46.405  0.00  0.00     0.037 A 
HETATM    7  C   UNK N   1      42.836  42.432  45.118  0.00  0.00     0.065 A 
HETATM    8  C   UNK N   1      42.703  43.442  44.161  0.00  0.00     0.037 A 
HETATM    9  C   UNK N   1      42.073  44.647  44.490  0.00  0.00     0.018 A 
BRANCH   7  10
HETATM   10  O   UNK N   1      43.469  41.286  44.793  0.00  0.00    -0.361 OA
HETATM   11  H   UNK N   1      43.318  40.845  43.945  0.00  0.00     0.217 HD
ENDBRANCH   7  10
ENDBRANCH   2   4
ENDBRANCH   1   2
BRANCH   1  12
HETATM   12  C   UNK N   1      41.764  47.365  48.304  0.00  0.00     0.125 C 
BRANCH  12  13
HETATM   13  O   UNK N   1      42.817  47.573  47.394  0.00  0.00    -0.395 OA
HETATM   14  H   UNK N   1      42.831  46.805  46.765  0.00  0.00     0.210 HD
ENDBRANCH  12  13
BRANCH  12  15
HETATM   15  C   UNK N   1      42.350  46.772  49.609  0.00  0.00     0.037 C 
BRANCH  15  16
HETATM   16  C   UNK N   1      42.162  45.244  49.761  0.00  0.00     0.041 C 
BRANCH  16  17
HETATM   17  C   UNK N   1      41.582  44.835  51.097  0.00  0.00    -0.058 A 
HETATM   18  C   UNK N   1      40.586  43.843  51.169  0.00  0.00     0.007 A 
HETATM   19  C   UNK N   1      40.058  43.459  52.404  0.00  0.00     0.001 A 
HETATM   20  C   UNK N   1      40.536  44.041  53.580  0.00  0.00     0.000 A 
HETATM   21  C   UNK N   1      41.534  45.017  53.521  0.00  0.00     0.001 A 
HETATM   22  C   UNK N   1      42.051  45.422  52.285  0.00  0.00     0.007 A 
ENDBRANCH  16  17
ENDBRANCH  15  16
ENDBRANCH  12  15
ENDBRANCH   1  12
TORSDOF 8
ENDMDL
MODEL 2
REMARK VINA RESULT:      -8.1      3.823      7.799
REMARK  8 active torsions:
REMARK  status: ('A' for Active; 'I' for Inactive)
REMARK    1  A    between atoms: C_2  and  C_3 
REMARK    2  A    between atoms: C_2  and  C_11 
REMARK    3  A    between atoms: C_6  and  O_7 
REMARK    4  A    between atoms: C_11  and  C_12 
REMARK    5  A    between atoms: C_12  and  O_13 
REMARK    6  A    between atoms: C_12  and  C_15 
REMARK    7  A    between atoms: C_15  and  C_16 
REMARK    8  A    between atoms: C_16  and  C_17 
ROOT
HETATM    1  C   UNK N   1      40.385  45.758  47.433  0.00  0.00     0.115 C 
ENDROOT
BRANCH   1   2
HETATM    2  C   UNK N   1      39.757  44.935  48.539  0.00  0.00     0.162 C 
HETATM    3  O   UNK N   1      38.625  44.497  48.399  0.00  0.00    -0.292 OA
BRANCH   2   4
HETATM    4  C   UNK N   1      40.449  44.775  49.854  0.00  0.00     0.010 A 
HETATM    5  C   UNK N   1      40.045  43.749  50.732  0.00  0.00     0.018 A 
HETATM    6  C   UNK N   1      40.627  43.630  51.998  0.00  0.00     0.037 A 
HETATM    7  C   UNK N   1      41.625  44.523  52.403  0.00  0.00     0.065 A 
HETATM    8  C   UNK N   1      42.048  45.532  51.532  0.00  0.00     0.037 A 
HETATM    9  C   UNK N   1      41.464  45.661  50.267  0.00  0.00     0.018 A 
BRANCH   7  10
HETATM   10  O   UNK N   1      42.178  44.428  53.629  0.00  0.00    -0.361 OA
HETATM   11  H   UNK N   1      41.737  43.956  54.350  0.00  0.00     0.217 HD
ENDBRANCH   7  10
ENDBRANCH   2   4
ENDBRANCH   1   2
BRANCH   1  12
HETATM   12  C   UNK N   1      39.384  46.680  46.692  0.00  0.00     0.125 C 
BRANCH  12  13
HETATM   13  O   UNK N   1      38.515  45.895  45.911  0.00  0.00    -0.395 OA
HETATM   14  H   UNK N   1      37.787  46.483  45.582  0.00  0.00     0.210 HD
ENDBRANCH  12  13
BRANCH  12  15
HETATM   15  C   UNK N   1      40.068  47.722  45.772  0.00  0.00     0.037 C 
BRANCH  15  16
HETATM   16  C   UNK N   1      39.412  49.123  45.792  0.00  0.00     0.041 C 
BRANCH  16  17
HETATM   17  C   UNK N   1      39.294  49.756  44.423  0.00  0.00    -0.058 A 
HETATM   18  C   UNK N   1      40.090  50.865  44.079  0.00  0.00     0.007 A 
HETATM   19  C   UNK N   1      39.987  51.442  42.811  0.00  0.00     0.001 A 
HETATM   20  C   UNK N   1      39.110  50.905  41.867  0.00  0.00     0.000 A 
HETATM   21  C   UNK N   1      38.325  49.796  42.193  0.00  0.00     0.001 A 
HETATM   22  C   UNK N   1      38.408  49.227  43.470  0.00  0.00     0.007 A 
ENDBRANCH  16  17
ENDBRANCH  15  16
ENDBRANCH  12  15
ENDBRANCH   1  12
TORSDOF 8
ENDMDL
MODEL 3
REMARK VINA RESULT:      -7.9      3.676      7.588
REMARK  8 active torsions:
REMARK  status: ('A' for Active; 'I' for Inactive)
REMARK    1  A    between atoms: C_2  and  C_3 
REMARK    2  A    between atoms: C_2  and  C_11 
REMARK    3  A    between atoms: C_6  and  O_7 
REMARK    4  A    between atoms: C_11  and  C_12 
REMARK    5  A    between atoms: C_12  and  O_13 
REMARK    6  A    between atoms: C_12  and  C_15 
REMARK    7  A    between atoms: C_15  and  C_16 
REMARK    8  A    between atoms: C_16  and  C_17 
ROOT
HETATM    1  C   UNK N   1      41.789  46.254  47.424  0.00  0.00     0.115 C 
ENDROOT
BRANCH   1   2
HETATM    2  C   UNK N   1      41.392  44.961  48.108  0.00  0.00     0.162 C 
HETATM    3  O   UNK N   1      40.967  44.030  47.441  0.00  0.00    -0.292 OA
BRANCH   2   4
HETATM    4  C   UNK N   1      41.378  44.862  49.599  0.00  0.00     0.010 A 
HETATM    5  C   UNK N   1      42.217  45.702  50.359  0.00  0.00     0.018 A 
HETATM    6  C   UNK N   1      42.276  45.574  51.750  0.00  0.00     0.037 A 
HETATM    7  C   UNK N   1      41.495  44.614  52.404  0.00  0.00     0.065 A 
HETATM    8  C   UNK N   1      40.644  43.790  51.662  0.00  0.00     0.037 A 
HETATM    9  C   UNK N   1      40.586  43.909  50.269  0.00  0.00     0.018 A 
BRANCH   7  10
HETATM   10  O   UNK N   1      41.560  44.470  53.743  0.00  0.00    -0.361 OA
HETATM   11  H   UNK N   1      40.892  44.854  54.329  0.00  0.00     0.217 HD
ENDBRANCH   7  10
ENDBRANCH   2   4
ENDBRANCH   1   2
BRANCH   1  12
HETATM   12  C   UNK N   1      40.804  46.705  46.316  0.00  0.00     0.125 C 
BRANCH  12  13
HETATM   13  O   UNK N   1      41.115  46.042  45.115  0.00  0.00    -0.395 OA
HETATM   14  H   UNK N   1      40.815  45.099  45.201  0.00  0.00     0.210 HD
ENDBRANCH  12  13
BRANCH  12  15
HETATM   15  C   UNK N   1      40.823  48.232  46.057  0.00  0.00     0.037 C 
BRANCH  15  16
HETATM   16  C   UNK N   1      39.433  48.854  45.785  0.00  0.00     0.041 C 
BRANCH  16  17
HETATM   17  C   UNK N   1      39.337  49.560  44.450  0.00  0.00    -0.058 A 
HETATM   18  C   UNK N   1      38.411  49.129  43.480  0.00  0.00     0.007 A 
HETATM   19  C   UNK N   1      38.316  49.788  42.252  0.00  0.00     0.001 A 
HETATM   20  C   UNK N   1      39.124  50.896  41.988  0.00  0.00     0.000 A 
HETATM   21  C   UNK N   1      40.036  51.340  42.949  0.00  0.00     0.001 A 
HETATM   22  C   UNK N   1      40.152  50.671  44.173  0.00  0.00     0.007 A 
ENDBRANCH  16  17
ENDBRANCH  15  16
ENDBRANCH  12  15
ENDBRANCH   1  12
TORSDOF 8
ENDMDL
MODEL 4
REMARK VINA RESULT:      -7.4      3.372      6.563
REMARK  8 active torsions:
REMARK  status: ('A' for Active; 'I' for Inactive)
REMARK    1  A    between atoms: C_2  and  C_3 
REMARK    2  A    between atoms: C_2  and  C_11 
REMARK    3  A    between atoms: C_6  and  O_7 
REMARK    4  A    between atoms: C_11  and  C_12 
REMARK    5  A    between atoms: C_12  and  O_13 
REMARK    6  A    between atoms: C_12  and  C_15 
REMARK    7  A    between atoms: C_15  and  C_16 
REMARK    8  A    between atoms: C_16  and  C_17 
ROOT
HETATM    1  C   UNK N   1      40.711  45.574  47.374  0.00  0.00     0.115 C 
ENDROOT
BRANCH   1   2
HETATM    2  C   UNK N   1      40.477  44.585  46.250  0.00  0.00     0.162 C 
HETATM    3  O   UNK N   1      39.343  44.391  45.840  0.00  0.00    -0.292 OA
BRANCH   2   4
HETATM    4  C   UNK N   1      41.598  43.739  45.737  0.00  0.00     0.010 A 
HETATM    5  C   UNK N   1      42.103  42.694  46.536  0.00  0.00     0.018 A 
HETATM    6  C   UNK N   1      43.200  41.941  46.108  0.00  0.00     0.037 A 
HETATM    7  C   UNK N   1      43.804  42.212  44.875  0.00  0.00     0.065 A 
HETATM    8  C   UNK N   1      43.298  43.233  44.064  0.00  0.00     0.037 A 
HETATM    9  C   UNK N   1      42.205  43.995  44.490  0.00  0.00     0.018 A 
BRANCH   7  10
HETATM   10  O   UNK N   1      44.875  41.503  44.462  0.00  0.00    -0.361 OA
HETATM   11  H   UNK N   1      45.741  41.917  44.338  0.00  0.00     0.217 HD
ENDBRANCH   7  10
ENDBRANCH   2   4
ENDBRANCH   1   2
BRANCH   1  12
HETATM   12  C   UNK N   1      39.844  46.854  47.272  0.00  0.00     0.125 C 
BRANCH  12  13
HETATM   13  O   UNK N   1      38.490  46.520  47.466  0.00  0.00    -0.395 OA
HETATM   14  H   UNK N   1      37.973  47.366  47.515  0.00  0.00     0.210 HD
ENDBRANCH  12  13
BRANCH  12  15
HETATM   15  C   UNK N   1      39.981  47.586  45.914  0.00  0.00     0.037 C 
BRANCH  15  16
HETATM   16  C   UNK N   1      39.512  49.061  45.929  0.00  0.00     0.041 C 
BRANCH  16  17
HETATM   17  C   UNK N   1      39.376  49.667  44.550  0.00  0.00    -0.058 A 
HETATM   18  C   UNK N   1      40.137  50.794  44.187  0.00  0.00     0.007 A 
HETATM   19  C   UNK N   1      40.018  51.347  42.909  0.00  0.00     0.001 A 
HETATM   20  C   UNK N   1      39.158  50.767  41.974  0.00  0.00     0.000 A 
HETATM   21  C   UNK N   1      38.408  49.640  42.319  0.00  0.00     0.001 A 
HETATM   22  C   UNK N   1      38.507  49.095  43.605  0.00  0.00     0.007 A 
ENDBRANCH  16  17
ENDBRANCH  15  16
ENDBRANCH  12  15
ENDBRANCH   1  12
TORSDOF 8
ENDMDL
MODEL 5
REMARK VINA RESULT:      -7.2      3.230      4.860
REMARK  8 active torsions:
REMARK  status: ('A' for Active; 'I' for Inactive)
REMARK    1  A    between atoms: C_2  and  C_3 
REMARK    2  A    between atoms: C_2  and  C_11 
REMARK    3  A    between atoms: C_6  and  O_7 
REMARK    4  A    between atoms: C_11  and  C_12 
REMARK    5  A    between atoms: C_12  and  O_13 
REMARK    6  A    between atoms: C_12  and  C_15 
REMARK    7  A    between atoms: C_15  and  C_16 
REMARK    8  A    between atoms: C_16  and  C_17 
ROOT
HETATM    1  C   UNK N   1      40.789  47.591  46.365  0.00  0.00     0.115 C 
ENDROOT
BRANCH   1   2
HETATM    2  C   UNK N   1      39.793  48.725  46.221  0.00  0.00     0.162 C 
HETATM    3  O   UNK N   1      39.191  49.129  47.204  0.00  0.00    -0.292 OA
BRANCH   2   4
HETATM    4  C   UNK N   1      39.433  49.254  44.870  0.00  0.00     0.010 A 
HETATM    5  C   UNK N   1      38.399  48.639  44.136  0.00  0.00     0.018 A 
HETATM    6  C   UNK N   1      38.098  49.069  42.840  0.00  0.00     0.037 A 
HETATM    7  C   UNK N   1      38.816  50.123  42.262  0.00  0.00     0.065 A 
HETATM    8  C   UNK N   1      39.830  50.753  42.989  0.00  0.00     0.037 A 
HETATM    9  C   UNK N   1      40.140  50.322  44.284  0.00  0.00     0.018 A 
BRANCH   7  10
HETATM   10  O   UNK N   1      38.545  50.532  41.005  0.00  0.00    -0.361 OA
HETATM   11  H   UNK N   1      39.250  50.768  40.385  0.00  0.00     0.217 HD
ENDBRANCH   7  10
ENDBRANCH   2   4
ENDBRANCH   1   2
BRANCH   1  12
HETATM   12  C   UNK N   1      41.606  47.638  47.680  0.00  0.00     0.125 C 
BRANCH  12  13
HETATM   13  O   UNK N   1      42.951  47.929  47.386  0.00  0.00    -0.395 OA
HETATM   14  H   UNK N   1      43.196  48.761  47.870  0.00  0.00     0.210 HD
ENDBRANCH  12  13
BRANCH  12  15
HETATM   15  C   UNK N   1      41.553  46.318  48.488  0.00  0.00     0.037 C 
BRANCH  15  16
HETATM   16  C   UNK N   1      42.298  46.364  49.843  0.00  0.00     0.041 C 
BRANCH  16  17
HETATM   17  C   UNK N   1      41.701  45.454  50.894  0.00  0.00    -0.058 A 
HETATM   18  C   UNK N   1      40.708  44.519  50.546  0.00  0.00     0.007 A 
HETATM   19  C   UNK N   1      40.164  43.672  51.516  0.00  0.00     0.001 A 
HETATM   20  C   UNK N   1      40.622  43.732  52.833  0.00  0.00     0.000 A 
HETATM   21  C   UNK N   1      41.617  44.648  53.186  0.00  0.00     0.001 A 
HETATM   22  C   UNK N   1      42.150  45.514  52.224  0.00  0.00     0.007 A 
ENDBRANCH  16  17
ENDBRANCH  15  16
ENDBRANCH  12  15
ENDBRANCH   1  12
TORSDOF 8
ENDMDL
MODEL 6
REMARK VINA RESULT:      -6.7      2.066      4.402
REMARK  8 active torsions:
REMARK  status: ('A' for Active; 'I' for Inactive)
REMARK    1  A    between atoms: C_2  and  C_3 
REMARK    2  A    between atoms: C_2  and  C_11 
REMARK    3  A    between atoms: C_6  and  O_7 
REMARK    4  A    between atoms: C_11  and  C_12 
REMARK    5  A    between atoms: C_12  and  O_13 
REMARK    6  A    between atoms: C_12  and  C_15 
REMARK    7  A    between atoms: C_15  and  C_16 
REMARK    8  A    between atoms: C_16  and  C_17 
ROOT
HETATM    1  C   UNK N   1      40.496  43.790  49.081  0.00  0.00     0.115 C 
ENDROOT
BRANCH   1   2
HETATM    2  C   UNK N   1      40.528  44.093  47.597  0.00  0.00     0.162 C 
HETATM    3  O   UNK N   1      39.617  44.728  47.089  0.00  0.00    -0.292 OA
BRANCH   2   4
HETATM    4  C   UNK N   1      41.587  43.500  46.723  0.00  0.00     0.010 A 
HETATM    5  C   UNK N   1      41.899  44.116  45.494  0.00  0.00     0.018 A 
HETATM    6  C   UNK N   1      42.830  43.536  44.628  0.00  0.00     0.037 A 
HETATM    7  C   UNK N   1      43.471  42.342  44.976  0.00  0.00     0.065 A 
HETATM    8  C   UNK N   1      43.184  41.733  46.202  0.00  0.00     0.037 A 
HETATM    9  C   UNK N   1      42.247  42.305  47.070  0.00  0.00     0.018 A 
BRANCH   7  10
HETATM   10  O   UNK N   1      44.356  41.765  44.138  0.00  0.00    -0.361 OA
HETATM   11  H   UNK N   1      44.352  41.951  43.188  0.00  0.00     0.217 HD
ENDBRANCH   7  10
ENDBRANCH   2   4
ENDBRANCH   1   2
BRANCH   1  12
HETATM   12  C   UNK N   1      41.696  44.378  49.867  0.00  0.00     0.125 C 
BRANCH  12  13
HETATM   13  O   UNK N   1      41.865  43.664  51.067  0.00  0.00    -0.395 OA
HETATM   14  H   UNK N   1      42.583  44.111  51.588  0.00  0.00     0.210 HD
ENDBRANCH  12  13
BRANCH  12  15
HETATM   15  C   UNK N   1      41.535  45.881  50.204  0.00  0.00     0.037 C 
BRANCH  15  16
HETATM   16  C   UNK N   1      42.623  46.796  49.593  0.00  0.00     0.041 C 
BRANCH  16  17
HETATM   17  C   UNK N   1      42.221  47.414  48.271  0.00  0.00    -0.058 A 
HETATM   18  C   UNK N   1      43.202  47.861  47.365  0.00  0.00     0.007 A 
HETATM   19  C   UNK N   1      42.830  48.422  46.141  0.00  0.00     0.001 A 
HETATM   20  C   UNK N   1      41.480  48.520  45.798  0.00  0.00     0.000 A 
HETATM   21  C   UNK N   1      40.499  48.067  46.684  0.00  0.00     0.001 A 
HETATM   22  C   UNK N   1      40.865  47.524  47.921  0.00  0.00     0.007 A 
ENDBRANCH  16  17
ENDBRANCH  15  16
ENDBRANCH  12  15
ENDBRANCH   1  12
TORSDOF 8
ENDMDL
MODEL 7
REMARK VINA RESULT:      -6.6     12.631     14.856
REMARK  8 active torsions:
REMARK  status: ('A' for Active; 'I' for Inactive)
REMARK    1  A    between atoms: C_2  and  C_3 
REMARK    2  A    between atoms: C_2  and  C_11 
REMARK    3  A    between atoms: C_6  and  O_7 
REMARK    4  A    between atoms: C_11  and  C_12 
REMARK    5  A    between atoms: C_12  and  O_13 
REMARK    6  A    between atoms: C_12  and  C_15 
REMARK    7  A    between atoms: C_15  and  C_16 
REMARK    8  A    between atoms: C_16  and  C_17 
ROOT
HETATM    1  C   UNK N   1      29.545  53.768  40.775  0.00  0.00     0.115 C 
ENDROOT
BRANCH   1   2
HETATM    2  C   UNK N   1      29.807  52.367  40.259  0.00  0.00     0.162 C 
HETATM    3  O   UNK N   1      29.195  51.956  39.285  0.00  0.00    -0.292 OA
BRANCH   2   4
HETATM    4  C   UNK N   1      30.698  51.433  41.015  0.00  0.00     0.010 A 
HETATM    5  C   UNK N   1      30.583  50.044  40.809  0.00  0.00     0.018 A 
HETATM    6  C   UNK N   1      31.352  49.150  41.560  0.00  0.00     0.037 A 
HETATM    7  C   UNK N   1      32.253  49.628  42.519  0.00  0.00     0.065 A 
HETATM    8  C   UNK N   1      32.390  51.005  42.717  0.00  0.00     0.037 A 
HETATM    9  C   UNK N   1      31.617  51.904  41.973  0.00  0.00     0.018 A 
BRANCH   7  10
HETATM   10  O   UNK N   1      32.985  48.773  43.262  0.00  0.00    -0.361 OA
HETATM   11  H   UNK N   1      32.622  48.346  44.052  0.00  0.00     0.217 HD
ENDBRANCH   7  10
ENDBRANCH   2   4
ENDBRANCH   1   2
BRANCH   1  12
HETATM   12  C   UNK N   1      30.328  54.870  40.019  0.00  0.00     0.125 C 
BRANCH  12  13
HETATM   13  O   UNK N   1      31.178  54.273  39.069  0.00  0.00    -0.395 OA
HETATM   14  H   UNK N   1      30.734  54.335  38.183  0.00  0.00     0.210 HD
ENDBRANCH  12  13
BRANCH  12  15
HETATM   15  C   UNK N   1      31.181  55.769  40.948  0.00  0.00     0.037 C 
BRANCH  15  16
HETATM   16  C   UNK N   1      30.612  55.939  42.376  0.00  0.00     0.041 C 
BRANCH  16  17
HETATM   17  C   UNK N   1      31.390  55.182  43.431  0.00  0.00    -0.058 A 
HETATM   18  C   UNK N   1      30.715  54.445  44.423  0.00  0.00     0.007 A 
HETATM   19  C   UNK N   1      31.435  53.739  45.391  0.00  0.00     0.001 A 
HETATM   20  C   UNK N   1      32.830  53.741  45.364  0.00  0.00     0.000 A 
HETATM   21  C   UNK N   1      33.510  54.458  44.376  0.00  0.00     0.001 A 
HETATM   22  C   UNK N   1      32.795  55.186  43.417  0.00  0.00     0.007 A 
ENDBRANCH  16  17
ENDBRANCH  15  16
ENDBRANCH  12  15
ENDBRANCH   1  12
TORSDOF 8
ENDMDL
MODEL 8
REMARK VINA RESULT:      -6.4     12.982     15.703
REMARK  8 active torsions:
REMARK  status: ('A' for Active; 'I' for Inactive)
REMARK    1  A    between atoms: C_2  and  C_3 
REMARK    2  A    between atoms: C_2  and  C_11 
REMARK    3  A    between atoms: C_6  and  O_7 
REMARK    4  A    between atoms: C_11  and  C_12 
REMARK    5  A    between atoms: C_12  and  O_13 
REMARK    6  A    between atoms: C_12  and  C_15 
REMARK    7  A    between atoms: C_15  and  C_16 
REMARK    8  A    between atoms: C_16  and  C_17 
ROOT
HETATM    1  C   UNK N   1      29.376  54.627  40.751  0.00  0.00     0.115 C 
ENDROOT
BRANCH   1   2
HETATM    2  C   UNK N   1      29.307  54.981  42.223  0.00  0.00     0.162 C 
HETATM    3  O   UNK N   1      28.290  55.480  42.678  0.00  0.00    -0.292 OA
BRANCH   2   4
HETATM    4  C   UNK N   1      30.518  54.859  43.091  0.00  0.00     0.010 A 
HETATM    5  C   UNK N   1      30.382  54.384  44.411  0.00  0.00     0.018 A 
HETATM    6  C   UNK N   1      31.488  54.335  45.264  0.00  0.00     0.037 A 
HETATM    7  C   UNK N   1      32.747  54.748  44.812  0.00  0.00     0.065 A 
HETATM    8  C   UNK N   1      32.897  55.201  43.498  0.00  0.00     0.037 A 
HETATM    9  C   UNK N   1      31.792  55.260  42.642  0.00  0.00     0.018 A 
BRANCH   7  10
HETATM   10  O   UNK N   1      33.816  54.722  45.633  0.00  0.00    -0.361 OA
HETATM   11  H   UNK N   1      34.187  53.890  45.959  0.00  0.00     0.217 HD
ENDBRANCH   7  10
ENDBRANCH   2   4
ENDBRANCH   1   2
BRANCH   1  12
HETATM   12  C   UNK N   1      28.436  53.465  40.341  0.00  0.00     0.125 C 
BRANCH  12  13
HETATM   13  O   UNK N   1      27.450  53.290  41.330  0.00  0.00    -0.395 OA
HETATM   14  H   UNK N   1      26.981  52.435  41.144  0.00  0.00     0.210 HD
ENDBRANCH  12  13
BRANCH  12  15
HETATM   15  C   UNK N   1      29.172  52.118  40.135  0.00  0.00     0.037 C 
BRANCH  15  16
HETATM   16  C   UNK N   1      30.711  52.200  40.275  0.00  0.00     0.041 C 
BRANCH  16  17
HETATM   17  C   UNK N   1      31.290  51.160  41.208  0.00  0.00    -0.058 A 
HETATM   18  C   UNK N   1      32.047  51.550  42.330  0.00  0.00     0.007 A 
HETATM   19  C   UNK N   1      32.572  50.589  43.197  0.00  0.00     0.001 A 
HETATM   20  C   UNK N   1      32.328  49.233  42.969  0.00  0.00     0.000 A 
HETATM   21  C   UNK N   1      31.566  48.835  41.867  0.00  0.00     0.001 A 
HETATM   22  C   UNK N   1      31.056  49.793  40.982  0.00  0.00     0.007 A 
ENDBRANCH  16  17
ENDBRANCH  15  16
ENDBRANCH  12  15
ENDBRANCH   1  12
TORSDOF 8
ENDMDL
MODEL 9
REMARK VINA RESULT:      -6.4     12.847     15.478
REMARK  8 active torsions:
REMARK  status: ('A' for Active; 'I' for Inactive)
REMARK    1  A    between atoms: C_2  and  C_3 
REMARK    2  A    between atoms: C_2  and  C_11 
REMARK    3  A    between atoms: C_6  and  O_7 
REMARK    4  A    between atoms: C_11  and  C_12 
REMARK    5  A    between atoms: C_12  and  O_13 
REMARK    6  A    between atoms: C_12  and  C_15 
REMARK    7  A    between atoms: C_15  and  C_16 
REMARK    8  A    between atoms: C_16  and  C_17 
ROOT
HETATM    1  C   UNK N   1      31.620  53.494  44.164  0.00  0.00     0.115 C 
ENDROOT
BRANCH   1   2
HETATM    2  C   UNK N   1      32.576  52.365  43.832  0.00  0.00     0.162 C 
HETATM    3  O   UNK N   1      33.732  52.418  44.222  0.00  0.00    -0.292 OA
BRANCH   2   4
HETATM    4  C   UNK N   1      32.159  51.261  42.914  0.00  0.00     0.010 A 
HETATM    5  C   UNK N   1      31.569  51.574  41.673  0.00  0.00     0.018 A 
HETATM    6  C   UNK N   1      31.103  50.558  40.835  0.00  0.00     0.037 A 
HETATM    7  C   UNK N   1      31.226  49.216  41.215  0.00  0.00     0.065 A 
HETATM    8  C   UNK N   1      31.829  48.894  42.435  0.00  0.00     0.037 A 
HETATM    9  C   UNK N   1      32.291  49.907  43.282  0.00  0.00     0.018 A 
BRANCH   7  10
HETATM   10  O   UNK N   1      30.762  48.230  40.421  0.00  0.00    -0.361 OA
HETATM   11  H   UNK N   1      31.340  47.758  39.805  0.00  0.00     0.217 HD
ENDBRANCH   7  10
ENDBRANCH   2   4
ENDBRANCH   1   2
BRANCH   1  12
HETATM   12  C   UNK N   1      31.956  54.829  43.452  0.00  0.00     0.125 C 
BRANCH  12  13
HETATM   13  O   UNK N   1      32.788  55.604  44.281  0.00  0.00    -0.395 OA
HETATM   14  H   UNK N   1      32.224  56.296  44.716  0.00  0.00     0.210 HD
ENDBRANCH  12  13
BRANCH  12  15
HETATM   15  C   UNK N   1      30.706  55.666  43.086  0.00  0.00     0.037 C 
BRANCH  15  16
HETATM   16  C   UNK N   1      30.620  56.073  41.596  0.00  0.00     0.041 C 
BRANCH  16  17
HETATM   17  C   UNK N   1      30.122  54.966  40.694  0.00  0.00    -0.058 A 
HETATM   18  C   UNK N   1      28.963  54.239  41.028  0.00  0.00     0.007 A 
HETATM   19  C   UNK N   1      28.499  53.223  40.188  0.00  0.00     0.001 A 
HETATM   20  C   UNK N   1      29.170  52.939  38.997  0.00  0.00     0.000 A 
HETATM   21  C   UNK N   1      30.313  53.664  38.649  0.00  0.00     0.001 A 
HETATM   22  C   UNK N   1      30.795  54.668  39.497  0.00  0.00     0.007 A 
ENDBRANCH  16  17
ENDBRANCH  15  16
ENDBRANCH  12  15
ENDBRANCH   1  12
TORSDOF 8
ENDMDL
