MODEL 1
REMARK VINA RESULT:      -8.0      0.000      0.000
REMARK  9 active torsions:
REMARK  status: ('A' for Active; 'I' for Inactive)
REMARK    1  A    between atoms: C_2  and  O_3 
REMARK    2  A    between atoms: C_2  and  C_5 
REMARK    3  A    between atoms: C_7  and  O_8 
REMARK    4  A    between atoms: O_8  and  C_9 
REMARK    5  A    between atoms: C_10  and  O_11 
REMARK    6  A    between atoms: C_13  and  O_14 
REMARK    7  A    between atoms: C_16  and  O_17 
REMARK    8  A    between atoms: C_21  and  O_22 
REMARK    9  A    between atoms: C_24  and  O_26 
ROOT
HETATM    1  C   UNK N   1      42.653  42.897  45.989  0.00  0.00     0.043 A 
HETATM    2  C   UNK N   1      41.947  43.580  46.994  0.00  0.00     0.058 A 
HETATM    3  C   UNK N   1      41.259  44.770  46.708  0.00  0.00     0.113 A 
HETATM    4  C   UNK N   1      41.248  45.283  45.404  0.00  0.00     0.133 A 
HETATM    5  C   UNK N   1      41.945  44.596  44.379  0.00  0.00     0.102 A 
HETATM    6  C   UNK N   1      42.646  43.423  44.685  0.00  0.00     0.057 A 
ENDROOT
BRANCH   3   7
HETATM    7  O   UNK N   1      40.611  45.434  47.693  0.00  0.00    -0.305 OA
BRANCH   7   8
HETATM    8  C   UNK N   1      40.980  45.338  48.992  0.00  0.00     0.112 A 
HETATM    9  C   UNK N   1      40.236  44.559  49.896  0.00  0.00     0.136 A 
HETATM   10  C   UNK N   1      40.638  44.468  51.242  0.00  0.00     0.135 A 
HETATM   11  C   UNK N   1      41.803  45.158  51.673  0.00  0.00     0.101 A 
HETATM   12  C   UNK N   1      42.532  45.920  50.755  0.00  0.00     0.042 A 
HETATM   13  C   UNK N   1      42.123  46.014  49.428  0.00  0.00     0.043 A 
BRANCH   9  14
HETATM   14  O   UNK N   1      39.124  43.906  49.494  0.00  0.00    -0.356 OA
HETATM   15  H   UNK N   1      38.579  43.386  50.102  0.00  0.00     0.218 HD
ENDBRANCH   9  14
BRANCH  10  16
HETATM   16  O   UNK N   1      39.892  43.719  52.085  0.00  0.00    -0.356 OA
HETATM   17  H   UNK N   1      39.111  43.220  51.822  0.00  0.00     0.218 HD
ENDBRANCH  10  16
BRANCH  11  18
HETATM   18  O   UNK N   1      42.242  45.112  52.951  0.00  0.00    -0.358 OA
HETATM   19  H   UNK N   1      42.179  44.338  53.521  0.00  0.00     0.218 HD
ENDBRANCH  11  18
ENDBRANCH   7   8
ENDBRANCH   3   7
BRANCH   4  20
HETATM   20  O   UNK N   1      40.548  46.417  45.168  0.00  0.00    -0.356 OA
HETATM   21  H   UNK N   1      40.425  46.808  44.296  0.00  0.00     0.218 HD
ENDBRANCH   4  20
BRANCH   1  22
HETATM   22  C   UNK N   1      43.410  41.639  46.274  0.00  0.00     0.176 C 
HETATM   23  O   UNK N   1      42.802  40.590  46.414  0.00  0.00    -0.646 OA
BRANCH  22  24
HETATM   24  O   UNK N   1      44.759  41.623  46.400  0.00  0.00    -0.773 OA
HETATM   25  H   UNK N   1      45.277  42.376  46.705  0.00  0.00     0.167 HD
ENDBRANCH  22  24
ENDBRANCH   1  22
BRANCH   5  26
HETATM   26  O   UNK N   1      41.960  45.030  43.098  0.00  0.00    -0.358 OA
HETATM   27  H   UNK N   1      42.720  45.446  42.674  0.00  0.00     0.218 HD
ENDBRANCH   5  26
TORSDOF 9
ENDMDL
MODEL 2
REMARK VINA RESULT:      -7.2      0.853      1.725
REMARK  9 active torsions:
REMARK  status: ('A' for Active; 'I' for Inactive)
REMARK    1  A    between atoms: C_2  and  O_3 
REMARK    2  A    between atoms: C_2  and  C_5 
REMARK    3  A    between atoms: C_7  and  O_8 
REMARK    4  A    between atoms: O_8  and  C_9 
REMARK    5  A    between atoms: C_10  and  O_11 
REMARK    6  A    between atoms: C_13  and  O_14 
REMARK    7  A    between atoms: C_16  and  O_17 
REMARK    8  A    between atoms: C_21  and  O_22 
REMARK    9  A    between atoms: C_24  and  O_26 
ROOT
HETATM    1  C   UNK N   1      42.700  42.832  45.971  0.00  0.00     0.043 A 
HETATM    2  C   UNK N   1      42.041  43.520  47.004  0.00  0.00     0.058 A 
HETATM    3  C   UNK N   1      41.364  44.724  46.749  0.00  0.00     0.113 A 
HETATM    4  C   UNK N   1      41.319  45.247  45.449  0.00  0.00     0.133 A 
HETATM    5  C   UNK N   1      41.969  44.555  44.398  0.00  0.00     0.102 A 
HETATM    6  C   UNK N   1      42.660  43.368  44.671  0.00  0.00     0.057 A 
ENDROOT
BRANCH   3   7
HETATM    7  O   UNK N   1      40.762  45.392  47.760  0.00  0.00    -0.305 OA
BRANCH   7   8
HETATM    8  C   UNK N   1      40.808  44.958  49.041  0.00  0.00     0.112 A 
HETATM    9  C   UNK N   1      41.655  45.574  49.980  0.00  0.00     0.136 A 
HETATM   10  C   UNK N   1      41.686  45.110  51.309  0.00  0.00     0.135 A 
HETATM   11  C   UNK N   1      40.850  44.027  51.692  0.00  0.00     0.101 A 
HETATM   12  C   UNK N   1      40.011  43.435  50.744  0.00  0.00     0.042 A 
HETATM   13  C   UNK N   1      39.993  43.892  49.430  0.00  0.00     0.043 A 
BRANCH   9  14
HETATM   14  O   UNK N   1      42.457  46.600  49.620  0.00  0.00    -0.356 OA
HETATM   15  H   UNK N   1      43.309  46.463  49.182  0.00  0.00     0.218 HD
ENDBRANCH   9  14
BRANCH  10  16
HETATM   16  O   UNK N   1      42.521  45.719  52.181  0.00  0.00    -0.356 OA
HETATM   17  H   UNK N   1      42.307  45.896  53.104  0.00  0.00     0.218 HD
ENDBRANCH  10  16
BRANCH  11  18
HETATM   18  O   UNK N   1      40.833  43.534  52.951  0.00  0.00    -0.358 OA
HETATM   19  H   UNK N   1      40.032  43.337  53.447  0.00  0.00     0.218 HD
ENDBRANCH  11  18
ENDBRANCH   7   8
ENDBRANCH   3   7
BRANCH   4  20
HETATM   20  O   UNK N   1      40.632  46.394  45.245  0.00  0.00    -0.356 OA
HETATM   21  H   UNK N   1      39.690  46.501  45.416  0.00  0.00     0.218 HD
ENDBRANCH   4  20
BRANCH   1  22
HETATM   22  C   UNK N   1      43.444  41.559  46.222  0.00  0.00     0.176 C 
HETATM   23  O   UNK N   1      42.823  40.540  46.475  0.00  0.00    -0.646 OA
BRANCH  22  24
HETATM   24  O   UNK N   1      44.797  41.498  46.195  0.00  0.00    -0.773 OA
HETATM   25  H   UNK N   1      45.346  41.425  46.984  0.00  0.00     0.167 HD
ENDBRANCH  22  24
ENDBRANCH   1  22
BRANCH   5  26
HETATM   26  O   UNK N   1      41.950  44.998  43.119  0.00  0.00    -0.358 OA
HETATM   27  H   UNK N   1      41.916  45.928  42.867  0.00  0.00     0.218 HD
ENDBRANCH   5  26
TORSDOF 9
ENDMDL
MODEL 3
REMARK VINA RESULT:      -7.1      1.422      6.131
REMARK  9 active torsions:
REMARK  status: ('A' for Active; 'I' for Inactive)
REMARK    1  A    between atoms: C_2  and  O_3 
REMARK    2  A    between atoms: C_2  and  C_5 
REMARK    3  A    between atoms: C_7  and  O_8 
REMARK    4  A    between atoms: O_8  and  C_9 
REMARK    5  A    between atoms: C_10  and  O_11 
REMARK    6  A    between atoms: C_13  and  O_14 
REMARK    7  A    between atoms: C_16  and  O_17 
REMARK    8  A    between atoms: C_21  and  O_22 
REMARK    9  A    between atoms: C_24  and  O_26 
ROOT
HETATM    1  C   UNK N   1      41.354  44.409  51.435  0.00  0.00     0.043 A 
HETATM    2  C   UNK N   1      40.868  43.903  50.217  0.00  0.00     0.058 A 
HETATM    3  C   UNK N   1      41.161  44.546  49.003  0.00  0.00     0.113 A 
HETATM    4  C   UNK N   1      41.964  45.695  48.989  0.00  0.00     0.133 A 
HETATM    5  C   UNK N   1      42.470  46.206  50.209  0.00  0.00     0.102 A 
HETATM    6  C   UNK N   1      42.151  45.568  51.413  0.00  0.00     0.057 A 
ENDROOT
BRANCH   3   7
HETATM    7  O   UNK N   1      40.658  44.066  47.842  0.00  0.00    -0.305 OA
BRANCH   7   8
HETATM    8  C   UNK N   1      41.444  43.513  46.888  0.00  0.00     0.112 A 
HETATM    9  C   UNK N   1      41.527  44.082  45.605  0.00  0.00     0.136 A 
HETATM   10  C   UNK N   1      42.354  43.494  44.628  0.00  0.00     0.135 A 
HETATM   11  C   UNK N   1      43.108  42.334  44.954  0.00  0.00     0.101 A 
HETATM   12  C   UNK N   1      43.016  41.792  46.239  0.00  0.00     0.042 A 
HETATM   13  C   UNK N   1      42.189  42.371  47.196  0.00  0.00     0.043 A 
BRANCH   9  14
HETATM   14  O   UNK N   1      40.808  45.180  45.286  0.00  0.00    -0.356 OA
HETATM   15  H   UNK N   1      40.404  45.748  45.958  0.00  0.00     0.218 HD
ENDBRANCH   9  14
BRANCH  10  16
HETATM   16  O   UNK N   1      42.399  44.060  43.401  0.00  0.00    -0.356 OA
HETATM   17  H   UNK N   1      41.623  44.257  42.865  0.00  0.00     0.218 HD
ENDBRANCH  10  16
BRANCH  11  18
HETATM   18  O   UNK N   1      43.919  41.722  44.062  0.00  0.00    -0.358 OA
HETATM   19  H   UNK N   1      43.762  40.845  43.697  0.00  0.00     0.218 HD
ENDBRANCH  11  18
ENDBRANCH   7   8
ENDBRANCH   3   7
BRANCH   4  20
HETATM   20  O   UNK N   1      42.242  46.265  47.794  0.00  0.00    -0.356 OA
HETATM   21  H   UNK N   1      41.950  47.145  47.531  0.00  0.00     0.218 HD
ENDBRANCH   4  20
BRANCH   1  22
HETATM   22  C   UNK N   1      41.040  43.752  52.742  0.00  0.00     0.176 C 
HETATM   23  O   UNK N   1      41.928  43.590  53.562  0.00  0.00    -0.646 OA
BRANCH  22  24
HETATM   24  O   UNK N   1      39.795  43.313  53.045  0.00  0.00    -0.773 OA
HETATM   25  H   UNK N   1      38.987  43.745  52.746  0.00  0.00     0.167 HD
ENDBRANCH  22  24
ENDBRANCH   1  22
BRANCH   5  26
HETATM   26  O   UNK N   1      43.263  47.301  50.261  0.00  0.00    -0.358 OA
HETATM   27  H   UNK N   1      43.680  47.707  49.492  0.00  0.00     0.218 HD
ENDBRANCH   5  26
TORSDOF 9
ENDMDL
MODEL 4
REMARK VINA RESULT:      -7.1      2.643      3.747
REMARK  9 active torsions:
REMARK  status: ('A' for Active; 'I' for Inactive)
REMARK    1  A    between atoms: C_2  and  O_3 
REMARK    2  A    between atoms: C_2  and  C_5 
REMARK    3  A    between atoms: C_7  and  O_8 
REMARK    4  A    between atoms: O_8  and  C_9 
REMARK    5  A    between atoms: C_10  and  O_11 
REMARK    6  A    between atoms: C_13  and  O_14 
REMARK    7  A    between atoms: C_16  and  O_17 
REMARK    8  A    between atoms: C_21  and  O_22 
REMARK    9  A    between atoms: C_24  and  O_26 
ROOT
HETATM    1  C   UNK N   1      41.814  47.456  46.404  0.00  0.00     0.043 A 
HETATM    2  C   UNK N   1      42.212  46.418  47.265  0.00  0.00     0.058 A 
HETATM    3  C   UNK N   1      41.319  45.392  47.615  0.00  0.00     0.113 A 
HETATM    4  C   UNK N   1      40.020  45.378  47.090  0.00  0.00     0.133 A 
HETATM    5  C   UNK N   1      39.612  46.411  46.211  0.00  0.00     0.102 A 
HETATM    6  C   UNK N   1      40.505  47.440  45.889  0.00  0.00     0.057 A 
ENDROOT
BRANCH   3   7
HETATM    7  O   UNK N   1      41.706  44.418  48.471  0.00  0.00    -0.305 OA
BRANCH   7   8
HETATM    8  C   UNK N   1      41.614  44.559  49.814  0.00  0.00     0.112 A 
HETATM    9  C   UNK N   1      40.674  43.818  50.553  0.00  0.00     0.136 A 
HETATM   10  C   UNK N   1      40.596  43.975  51.949  0.00  0.00     0.135 A 
HETATM   11  C   UNK N   1      41.479  44.877  52.603  0.00  0.00     0.101 A 
HETATM   12  C   UNK N   1      42.410  45.597  51.849  0.00  0.00     0.042 A 
HETATM   13  C   UNK N   1      42.474  45.445  50.467  0.00  0.00     0.043 A 
BRANCH   9  14
HETATM   14  O   UNK N   1      39.828  42.963  49.937  0.00  0.00    -0.356 OA
HETATM   15  H   UNK N   1      40.118  42.360  49.238  0.00  0.00     0.218 HD
ENDBRANCH   9  14
BRANCH  10  16
HETATM   16  O   UNK N   1      39.673  43.255  52.626  0.00  0.00    -0.356 OA
HETATM   17  H   UNK N   1      38.743  43.496  52.698  0.00  0.00     0.218 HD
ENDBRANCH  10  16
BRANCH  11  18
HETATM   18  O   UNK N   1      41.455  45.075  53.940  0.00  0.00    -0.358 OA
HETATM   19  H   UNK N   1      40.651  45.159  54.463  0.00  0.00     0.218 HD
ENDBRANCH  11  18
ENDBRANCH   7   8
ENDBRANCH   3   7
BRANCH   4  20
HETATM   20  O   UNK N   1      39.204  44.355  47.432  0.00  0.00    -0.356 OA
HETATM   21  H   UNK N   1      38.263  44.449  47.618  0.00  0.00     0.218 HD
ENDBRANCH   4  20
BRANCH   1  22
HETATM   22  C   UNK N   1      42.741  48.570  46.033  0.00  0.00     0.176 C 
HETATM   23  O   UNK N   1      42.470  49.286  45.083  0.00  0.00    -0.646 OA
BRANCH  22  24
HETATM   24  O   UNK N   1      43.890  48.806  46.710  0.00  0.00    -0.773 OA
HETATM   25  H   UNK N   1      43.949  49.381  47.481  0.00  0.00     0.167 HD
ENDBRANCH  22  24
ENDBRANCH   1  22
BRANCH   5  26
HETATM   26  O   UNK N   1      38.377  46.446  45.658  0.00  0.00    -0.358 OA
HETATM   27  H   UNK N   1      37.955  45.696  45.224  0.00  0.00     0.218 HD
ENDBRANCH   5  26
TORSDOF 9
ENDMDL
MODEL 5
REMARK VINA RESULT:      -6.5      1.545      3.519
REMARK  9 active torsions:
REMARK  status: ('A' for Active; 'I' for Inactive)
REMARK    1  A    between atoms: C_2  and  O_3 
REMARK    2  A    between atoms: C_2  and  C_5 
REMARK    3  A    between atoms: C_7  and  O_8 
REMARK    4  A    between atoms: O_8  and  C_9 
REMARK    5  A    between atoms: C_10  and  O_11 
REMARK    6  A    between atoms: C_13  and  O_14 
REMARK    7  A    between atoms: C_16  and  O_17 
REMARK    8  A    between atoms: C_21  and  O_22 
REMARK    9  A    between atoms: C_24  and  O_26 
ROOT
HETATM    1  C   UNK N   1      40.628  45.905  46.359  0.00  0.00     0.043 A 
HETATM    2  C   UNK N   1      40.475  45.261  47.599  0.00  0.00     0.058 A 
HETATM    3  C   UNK N   1      41.120  44.042  47.860  0.00  0.00     0.113 A 
HETATM    4  C   UNK N   1      41.948  43.459  46.890  0.00  0.00     0.133 A 
HETATM    5  C   UNK N   1      42.120  44.106  45.642  0.00  0.00     0.102 A 
HETATM    6  C   UNK N   1      41.451  45.310  45.387  0.00  0.00     0.057 A 
ENDROOT
BRANCH   3   7
HETATM    7  O   UNK N   1      40.937  43.416  49.046  0.00  0.00    -0.305 OA
BRANCH   7   8
HETATM    8  C   UNK N   1      41.163  44.033  50.230  0.00  0.00     0.112 A 
HETATM    9  C   UNK N   1      40.370  43.744  51.355  0.00  0.00     0.136 A 
HETATM   10  C   UNK N   1      40.624  44.393  52.578  0.00  0.00     0.135 A 
HETATM   11  C   UNK N   1      41.690  45.329  52.667  0.00  0.00     0.101 A 
HETATM   12  C   UNK N   1      42.470  45.594  51.538  0.00  0.00     0.042 A 
HETATM   13  C   UNK N   1      42.207  44.957  50.329  0.00  0.00     0.043 A 
BRANCH   9  14
HETATM   14  O   UNK N   1      39.351  42.861  51.275  0.00  0.00    -0.356 OA
HETATM   15  H   UNK N   1      38.818  42.613  52.044  0.00  0.00     0.218 HD
ENDBRANCH   9  14
BRANCH  10  16
HETATM   16  O   UNK N   1      39.834  44.100  53.636  0.00  0.00    -0.356 OA
HETATM   17  H   UNK N   1      39.799  43.237  54.064  0.00  0.00     0.218 HD
ENDBRANCH  10  16
BRANCH  11  18
HETATM   18  O   UNK N   1      41.985  45.986  53.812  0.00  0.00    -0.358 OA
HETATM   19  H   UNK N   1      41.729  45.688  54.691  0.00  0.00     0.218 HD
ENDBRANCH  11  18
ENDBRANCH   7   8
ENDBRANCH   3   7
BRANCH   4  20
HETATM   20  O   UNK N   1      42.571  42.298  47.196  0.00  0.00    -0.356 OA
HETATM   21  H   UNK N   1      43.119  41.797  46.581  0.00  0.00     0.218 HD
ENDBRANCH   4  20
BRANCH   1  22
HETATM   22  C   UNK N   1      39.935  47.195  46.051  0.00  0.00     0.176 C 
HETATM   23  O   UNK N   1      39.240  47.723  46.903  0.00  0.00    -0.646 OA
BRANCH  22  24
HETATM   24  O   UNK N   1      40.037  47.796  44.841  0.00  0.00    -0.773 OA
HETATM   25  H   UNK N   1      39.948  47.329  44.002  0.00  0.00     0.167 HD
ENDBRANCH  22  24
ENDBRANCH   1  22
BRANCH   5  26
HETATM   26  O   UNK N   1      42.917  43.604  44.670  0.00  0.00    -0.358 OA
HETATM   27  H   UNK N   1      42.792  42.742  44.256  0.00  0.00     0.218 HD
ENDBRANCH   5  26
TORSDOF 9
ENDMDL
MODEL 6
REMARK VINA RESULT:      -6.5      2.088      6.473
REMARK  9 active torsions:
REMARK  status: ('A' for Active; 'I' for Inactive)
REMARK    1  A    between atoms: C_2  and  O_3 
REMARK    2  A    between atoms: C_2  and  C_5 
REMARK    3  A    between atoms: C_7  and  O_8 
REMARK    4  A    between atoms: O_8  and  C_9 
REMARK    5  A    between atoms: C_10  and  O_11 
REMARK    6  A    between atoms: C_13  and  O_14 
REMARK    7  A    between atoms: C_16  and  O_17 
REMARK    8  A    between atoms: C_21  and  O_22 
REMARK    9  A    between atoms: C_24  and  O_26 
ROOT
HETATM    1  C   UNK N   1      40.339  43.589  52.513  0.00  0.00     0.043 A 
HETATM    2  C   UNK N   1      40.419  43.336  51.133  0.00  0.00     0.058 A 
HETATM    3  C   UNK N   1      41.314  44.053  50.322  0.00  0.00     0.113 A 
HETATM    4  C   UNK N   1      42.160  45.018  50.885  0.00  0.00     0.133 A 
HETATM    5  C   UNK N   1      42.097  45.272  52.277  0.00  0.00     0.102 A 
HETATM    6  C   UNK N   1      41.183  44.567  53.069  0.00  0.00     0.057 A 
ENDROOT
BRANCH   3   7
HETATM    7  O   UNK N   1      41.357  43.822  48.989  0.00  0.00    -0.305 OA
BRANCH   7   8
HETATM    8  C   UNK N   1      40.831  44.686  48.089  0.00  0.00     0.112 A 
HETATM    9  C   UNK N   1      41.426  44.861  46.826  0.00  0.00     0.136 A 
HETATM   10  C   UNK N   1      40.861  45.761  45.903  0.00  0.00     0.135 A 
HETATM   11  C   UNK N   1      39.686  46.480  46.253  0.00  0.00     0.101 A 
HETATM   12  C   UNK N   1      39.108  46.284  47.511  0.00  0.00     0.042 A 
HETATM   13  C   UNK N   1      39.677  45.400  48.423  0.00  0.00     0.043 A 
BRANCH   9  14
HETATM   14  O   UNK N   1      42.547  44.186  46.490  0.00  0.00    -0.356 OA
HETATM   15  H   UNK N   1      42.554  43.228  46.353  0.00  0.00     0.218 HD
ENDBRANCH   9  14
BRANCH  10  16
HETATM   16  O   UNK N   1      41.466  45.913  44.703  0.00  0.00    -0.356 OA
HETATM   17  H   UNK N   1      41.429  45.264  43.991  0.00  0.00     0.218 HD
ENDBRANCH  10  16
BRANCH  11  18
HETATM   18  O   UNK N   1      39.096  47.359  45.413  0.00  0.00    -0.358 OA
HETATM   19  H   UNK N   1      38.539  47.109  44.668  0.00  0.00     0.218 HD
ENDBRANCH  11  18
ENDBRANCH   7   8
ENDBRANCH   3   7
BRANCH   4  20
HETATM   20  O   UNK N   1      43.025  45.663  50.070  0.00  0.00    -0.356 OA
HETATM   21  H   UNK N   1      43.985  45.610  50.145  0.00  0.00     0.218 HD
ENDBRANCH   4  20
BRANCH   1  22
HETATM   22  C   UNK N   1      39.379  42.854  53.394  0.00  0.00     0.176 C 
HETATM   23  O   UNK N   1      39.593  42.789  54.593  0.00  0.00    -0.646 OA
BRANCH  22  24
HETATM   24  O   UNK N   1      38.279  42.236  52.902  0.00  0.00    -0.773 OA
HETATM   25  H   UNK N   1      37.730  41.631  53.414  0.00  0.00     0.167 HD
ENDBRANCH  22  24
ENDBRANCH   1  22
BRANCH   5  26
HETATM   26  O   UNK N   1      42.896  46.180  52.884  0.00  0.00    -0.358 OA
HETATM   27  H   UNK N   1      42.720  47.128  52.910  0.00  0.00     0.218 HD
ENDBRANCH   5  26
TORSDOF 9
ENDMDL
MODEL 7
REMARK VINA RESULT:      -6.5      2.053      3.200
REMARK  9 active torsions:
REMARK  status: ('A' for Active; 'I' for Inactive)
REMARK    1  A    between atoms: C_2  and  O_3 
REMARK    2  A    between atoms: C_2  and  C_5 
REMARK    3  A    between atoms: C_7  and  O_8 
REMARK    4  A    between atoms: O_8  and  C_9 
REMARK    5  A    between atoms: C_10  and  O_11 
REMARK    6  A    between atoms: C_13  and  O_14 
REMARK    7  A    between atoms: C_16  and  O_17 
REMARK    8  A    between atoms: C_21  and  O_22 
REMARK    9  A    between atoms: C_24  and  O_26 
ROOT
HETATM    1  C   UNK N   1      41.283  44.901  45.884  0.00  0.00     0.043 A 
HETATM    2  C   UNK N   1      41.709  44.725  47.212  0.00  0.00     0.058 A 
HETATM    3  C   UNK N   1      41.983  45.833  48.031  0.00  0.00     0.113 A 
HETATM    4  C   UNK N   1      41.813  47.134  47.540  0.00  0.00     0.133 A 
HETATM    5  C   UNK N   1      41.371  47.323  46.207  0.00  0.00     0.102 A 
HETATM    6  C   UNK N   1      41.124  46.210  45.395  0.00  0.00     0.057 A 
ENDROOT
BRANCH   3   7
HETATM    7  O   UNK N   1      42.426  45.648  49.297  0.00  0.00    -0.305 OA
BRANCH   7   8
HETATM    8  C   UNK N   1      41.698  44.986  50.227  0.00  0.00     0.112 A 
HETATM    9  C   UNK N   1      41.945  45.169  51.599  0.00  0.00     0.136 A 
HETATM   10  C   UNK N   1      41.174  44.474  52.550  0.00  0.00     0.135 A 
HETATM   11  C   UNK N   1      40.142  43.600  52.113  0.00  0.00     0.101 A 
HETATM   12  C   UNK N   1      39.909  43.440  50.744  0.00  0.00     0.042 A 
HETATM   13  C   UNK N   1      40.682  44.122  49.808  0.00  0.00     0.043 A 
BRANCH   9  14
HETATM   14  O   UNK N   1      42.929  45.993  52.021  0.00  0.00    -0.356 OA
HETATM   15  H   UNK N   1      43.858  45.723  52.042  0.00  0.00     0.218 HD
ENDBRANCH   9  14
BRANCH  10  16
HETATM   16  O   UNK N   1      41.448  44.665  53.861  0.00  0.00    -0.356 OA
HETATM   17  H   UNK N   1      42.137  45.252  54.191  0.00  0.00     0.218 HD
ENDBRANCH  10  16
BRANCH  11  18
HETATM   18  O   UNK N   1      39.367  42.904  52.975  0.00  0.00    -0.358 OA
HETATM   19  H   UNK N   1      38.617  42.359  52.714  0.00  0.00     0.218 HD
ENDBRANCH  11  18
ENDBRANCH   7   8
ENDBRANCH   3   7
BRANCH   4  20
HETATM   20  O   UNK N   1      42.063  48.170  48.373  0.00  0.00    -0.356 OA
HETATM   21  H   UNK N   1      42.450  49.008  48.097  0.00  0.00     0.218 HD
ENDBRANCH   4  20
BRANCH   1  22
HETATM   22  C   UNK N   1      41.003  43.737  44.986  0.00  0.00     0.176 C 
HETATM   23  O   UNK N   1      41.928  43.044  44.595  0.00  0.00    -0.646 OA
BRANCH  22  24
HETATM   24  O   UNK N   1      39.750  43.431  44.574  0.00  0.00    -0.773 OA
HETATM   25  H   UNK N   1      39.217  44.004  44.010  0.00  0.00     0.167 HD
ENDBRANCH  22  24
ENDBRANCH   1  22
BRANCH   5  26
HETATM   26  O   UNK N   1      41.172  48.552  45.678  0.00  0.00    -0.358 OA
HETATM   27  H   UNK N   1      41.880  49.156  45.424  0.00  0.00     0.218 HD
ENDBRANCH   5  26
TORSDOF 9
ENDMDL
MODEL 8
REMARK VINA RESULT:      -6.4      2.508      6.216
REMARK  9 active torsions:
REMARK  status: ('A' for Active; 'I' for Inactive)
REMARK    1  A    between atoms: C_2  and  O_3 
REMARK    2  A    between atoms: C_2  and  C_5 
REMARK    3  A    between atoms: C_7  and  O_8 
REMARK    4  A    between atoms: O_8  and  C_9 
REMARK    5  A    between atoms: C_10  and  O_11 
REMARK    6  A    between atoms: C_13  and  O_14 
REMARK    7  A    between atoms: C_16  and  O_17 
REMARK    8  A    between atoms: C_21  and  O_22 
REMARK    9  A    between atoms: C_24  and  O_26 
ROOT
HETATM    1  C   UNK N   1      40.215  47.950  46.146  0.00  0.00     0.043 A 
HETATM    2  C   UNK N   1      40.136  46.555  46.000  0.00  0.00     0.058 A 
HETATM    3  C   UNK N   1      40.816  45.700  46.882  0.00  0.00     0.113 A 
HETATM    4  C   UNK N   1      41.570  46.230  47.938  0.00  0.00     0.133 A 
HETATM    5  C   UNK N   1      41.646  47.635  48.103  0.00  0.00     0.102 A 
HETATM    6  C   UNK N   1      40.982  48.475  47.201  0.00  0.00     0.057 A 
ENDROOT
BRANCH   3   7
HETATM    7  O   UNK N   1      40.757  44.359  46.710  0.00  0.00    -0.305 OA
BRANCH   7   8
HETATM    8  C   UNK N   1      41.724  43.671  46.057  0.00  0.00     0.112 A 
HETATM    9  C   UNK N   1      42.369  42.581  46.668  0.00  0.00     0.136 A 
HETATM   10  C   UNK N   1      43.369  41.877  45.971  0.00  0.00     0.135 A 
HETATM   11  C   UNK N   1      43.711  42.269  44.648  0.00  0.00     0.101 A 
HETATM   12  C   UNK N   1      43.050  43.351  44.059  0.00  0.00     0.042 A 
HETATM   13  C   UNK N   1      42.070  44.050  44.757  0.00  0.00     0.043 A 
BRANCH   9  14
HETATM   14  O   UNK N   1      42.054  42.207  47.927  0.00  0.00    -0.356 OA
HETATM   15  H   UNK N   1      41.968  42.844  48.651  0.00  0.00     0.218 HD
ENDBRANCH   9  14
BRANCH  10  16
HETATM   16  O   UNK N   1      43.977  40.841  46.594  0.00  0.00    -0.356 OA
HETATM   17  H   UNK N   1      44.928  40.776  46.736  0.00  0.00     0.218 HD
ENDBRANCH  10  16
BRANCH  11  18
HETATM   18  O   UNK N   1      44.662  41.635  43.926  0.00  0.00    -0.358 OA
HETATM   19  H   UNK N   1      44.719  40.679  43.823  0.00  0.00     0.218 HD
ENDBRANCH  11  18
ENDBRANCH   7   8
ENDBRANCH   3   7
BRANCH   4  20
HETATM   20  O   UNK N   1      42.185  45.368  48.780  0.00  0.00    -0.356 OA
HETATM   21  H   UNK N   1      43.046  44.968  48.614  0.00  0.00     0.218 HD
ENDBRANCH   4  20
BRANCH   1  22
HETATM   22  C   UNK N   1      39.516  48.881  45.207  0.00  0.00     0.176 C 
HETATM   23  O   UNK N   1      39.444  48.598  44.022  0.00  0.00    -0.646 OA
BRANCH  22  24
HETATM   24  O   UNK N   1      38.967  50.048  45.624  0.00  0.00    -0.773 OA
HETATM   25  H   UNK N   1      39.412  50.901  45.563  0.00  0.00     0.167 HD
ENDBRANCH  22  24
ENDBRANCH   1  22
BRANCH   5  26
HETATM   26  O   UNK N   1      42.344  48.209  49.111  0.00  0.00    -0.358 OA
HETATM   27  H   UNK N   1      41.958  48.486  49.949  0.00  0.00     0.218 HD
ENDBRANCH   5  26
TORSDOF 9
ENDMDL
MODEL 9
REMARK VINA RESULT:      -6.3      1.985      4.183
REMARK  9 active torsions:
REMARK  status: ('A' for Active; 'I' for Inactive)
REMARK    1  A    between atoms: C_2  and  O_3 
REMARK    2  A    between atoms: C_2  and  C_5 
REMARK    3  A    between atoms: C_7  and  O_8 
REMARK    4  A    between atoms: O_8  and  C_9 
REMARK    5  A    between atoms: C_10  and  O_11 
REMARK    6  A    between atoms: C_13  and  O_14 
REMARK    7  A    between atoms: C_16  and  O_17 
REMARK    8  A    between atoms: C_21  and  O_22 
REMARK    9  A    between atoms: C_24  and  O_26 
ROOT
HETATM    1  C   UNK N   1      40.539  46.762  46.543  0.00  0.00     0.043 A 
HETATM    2  C   UNK N   1      41.229  46.463  47.731  0.00  0.00     0.058 A 
HETATM    3  C   UNK N   1      41.743  45.175  47.958  0.00  0.00     0.113 A 
HETATM    4  C   UNK N   1      41.593  44.174  46.989  0.00  0.00     0.133 A 
HETATM    5  C   UNK N   1      40.911  44.469  45.783  0.00  0.00     0.102 A 
HETATM    6  C   UNK N   1      40.383  45.750  45.580  0.00  0.00     0.057 A 
ENDROOT
BRANCH   3   7
HETATM    7  O   UNK N   1      42.377  44.892  49.120  0.00  0.00    -0.305 OA
BRANCH   7   8
HETATM    8  C   UNK N   1      41.703  44.577  50.251  0.00  0.00     0.112 A 
HETATM    9  C   UNK N   1      42.003  45.214  51.469  0.00  0.00     0.136 A 
HETATM   10  C   UNK N   1      41.288  44.876  52.633  0.00  0.00     0.135 A 
HETATM   11  C   UNK N   1      40.259  43.897  52.564  0.00  0.00     0.101 A 
HETATM   12  C   UNK N   1      39.973  43.284  51.342  0.00  0.00     0.042 A 
HETATM   13  C   UNK N   1      40.691  43.615  50.196  0.00  0.00     0.043 A 
BRANCH   9  14
HETATM   14  O   UNK N   1      42.984  46.140  51.542  0.00  0.00    -0.356 OA
HETATM   15  H   UNK N   1      42.800  47.089  51.577  0.00  0.00     0.218 HD
ENDBRANCH   9  14
BRANCH  10  16
HETATM   16  O   UNK N   1      41.611  45.500  53.789  0.00  0.00    -0.356 OA
HETATM   17  H   UNK N   1      40.970  45.783  54.450  0.00  0.00     0.218 HD
ENDBRANCH  10  16
BRANCH  11  18
HETATM   18  O   UNK N   1      39.537  43.527  53.646  0.00  0.00    -0.358 OA
HETATM   19  H   UNK N   1      39.610  42.672  54.082  0.00  0.00     0.218 HD
ENDBRANCH  11  18
ENDBRANCH   7   8
ENDBRANCH   3   7
BRANCH   4  20
HETATM   20  O   UNK N   1      42.129  42.957  47.239  0.00  0.00    -0.356 OA
HETATM   21  H   UNK N   1      42.807  42.789  47.902  0.00  0.00     0.218 HD
ENDBRANCH   4  20
BRANCH   1  22
HETATM   22  C   UNK N   1      39.965  48.120  46.287  0.00  0.00     0.176 C 
HETATM   23  O   UNK N   1      39.276  48.652  47.142  0.00  0.00    -0.646 OA
BRANCH  22  24
HETATM   24  O   UNK N   1      40.172  48.781  45.123  0.00  0.00    -0.773 OA
HETATM   25  H   UNK N   1      40.868  49.436  44.995  0.00  0.00     0.167 HD
ENDBRANCH  22  24
ENDBRANCH   1  22
BRANCH   5  26
HETATM   26  O   UNK N   1      40.746  43.551  44.802  0.00  0.00    -0.358 OA
HETATM   27  H   UNK N   1      40.127  42.813  44.846  0.00  0.00     0.218 HD
ENDBRANCH   5  26
TORSDOF 9
ENDMDL
