MODEL 1
REMARK VINA RESULT:      -7.5      0.000      0.000
REMARK  4 active torsions:
REMARK  status: ('A' for Active; 'I' for Inactive)
REMARK    1  A    between atoms: O_1  and  C_2 
REMARK    2  A    between atoms: O_1  and  C_11 
REMARK    3  A    between atoms: C_4  and  O_5 
REMARK    4  A    between atoms: C_13  and  O_14 
ROOT
HETATM    1  O   UNK N   1      41.480  44.023  49.079  0.00  0.00    -0.311 OA
ENDROOT
BRANCH   1   2
HETATM    2  C   UNK N   1      41.329  44.179  50.418  0.00  0.00     0.079 A 
HETATM    3  C   UNK N   1      42.102  45.118  51.110  0.00  0.00     0.073 A 
HETATM    4  C   UNK N   1      41.979  45.241  52.501  0.00  0.00     0.068 A 
HETATM    5  C   UNK N   1      41.064  44.434  53.198  0.00  0.00     0.043 A 
HETATM    6  C   UNK N   1      40.266  43.511  52.506  0.00  0.00    -0.057 A 
HETATM    7  C   UNK N   1      40.404  43.387  51.121  0.00  0.00     0.044 A 
HETATM    8  C   UNK N   1      39.277  42.661  53.247  0.00  0.00     0.048 C 
BRANCH   4   9
HETATM    9  O   UNK N   1      42.749  46.129  53.161  0.00  0.00    -0.361 OA
HETATM   10  H   UNK N   1      43.385  45.847  53.834  0.00  0.00     0.217 HD
ENDBRANCH   4   9
ENDBRANCH   1   2
BRANCH   1  11
HETATM   11  C   UNK N   1      41.114  45.002  48.209  0.00  0.00     0.079 A 
HETATM   12  C   UNK N   1      39.840  44.988  47.633  0.00  0.00     0.073 A 
HETATM   13  C   UNK N   1      39.479  45.974  46.702  0.00  0.00     0.068 A 
HETATM   14  C   UNK N   1      40.392  46.990  46.370  0.00  0.00     0.043 A 
HETATM   15  C   UNK N   1      41.660  47.023  46.963  0.00  0.00    -0.057 A 
HETATM   16  C   UNK N   1      42.019  46.026  47.877  0.00  0.00     0.044 A 
HETATM   17  C   UNK N   1      42.627  48.118  46.617  0.00  0.00     0.048 C 
BRANCH  13  18
HETATM   18  O   UNK N   1      38.261  45.932  46.128  0.00  0.00    -0.361 OA
HETATM   19  H   UNK N   1      37.551  46.531  46.400  0.00  0.00     0.217 HD
ENDBRANCH  13  18
ENDBRANCH   1  11
TORSDOF 4
ENDMDL
MODEL 2
REMARK VINA RESULT:      -7.5      0.028      6.292
REMARK  4 active torsions:
REMARK  status: ('A' for Active; 'I' for Inactive)
REMARK    1  A    between atoms: O_1  and  C_2 
REMARK    2  A    between atoms: O_1  and  C_11 
REMARK    3  A    between atoms: C_4  and  O_5 
REMARK    4  A    between atoms: C_13  and  O_14 
ROOT
HETATM    1  O   UNK N   1      41.477  44.003  49.068  0.00  0.00    -0.311 OA
ENDROOT
BRANCH   1   2
HETATM    2  C   UNK N   1      41.120  44.984  48.202  0.00  0.00     0.079 A 
HETATM    3  C   UNK N   1      39.850  44.978  47.613  0.00  0.00     0.073 A 
HETATM    4  C   UNK N   1      39.503  45.966  46.682  0.00  0.00     0.068 A 
HETATM    5  C   UNK N   1      40.425  46.974  46.354  0.00  0.00     0.043 A 
HETATM    6  C   UNK N   1      41.688  47.002  46.962  0.00  0.00    -0.057 A 
HETATM    7  C   UNK N   1      42.030  46.007  47.881  0.00  0.00     0.044 A 
HETATM    8  C   UNK N   1      42.666  48.089  46.625  0.00  0.00     0.048 C 
BRANCH   4   9
HETATM    9  O   UNK N   1      38.288  45.934  46.099  0.00  0.00    -0.361 OA
HETATM   10  H   UNK N   1      37.976  46.657  45.536  0.00  0.00     0.217 HD
ENDBRANCH   4   9
ENDBRANCH   1   2
BRANCH   1  11
HETATM   11  C   UNK N   1      41.326  44.157  50.411  0.00  0.00     0.079 A 
HETATM   12  C   UNK N   1      42.092  45.102  51.099  0.00  0.00     0.073 A 
HETATM   13  C   UNK N   1      41.967  45.230  52.490  0.00  0.00     0.068 A 
HETATM   14  C   UNK N   1      41.052  44.423  53.187  0.00  0.00     0.043 A 
HETATM   15  C   UNK N   1      40.262  43.493  52.500  0.00  0.00    -0.057 A 
HETATM   16  C   UNK N   1      40.406  43.358  51.115  0.00  0.00     0.044 A 
HETATM   17  C   UNK N   1      39.275  42.643  53.245  0.00  0.00     0.048 C 
BRANCH  13  18
HETATM   18  O   UNK N   1      42.735  46.121  53.148  0.00  0.00    -0.361 OA
HETATM   19  H   UNK N   1      42.573  47.073  53.086  0.00  0.00     0.217 HD
ENDBRANCH  13  18
ENDBRANCH   1  11
TORSDOF 4
ENDMDL
MODEL 3
REMARK VINA RESULT:      -7.2      2.757      3.314
REMARK  4 active torsions:
REMARK  status: ('A' for Active; 'I' for Inactive)
REMARK    1  A    between atoms: O_1  and  C_2 
REMARK    2  A    between atoms: O_1  and  C_11 
REMARK    3  A    between atoms: C_4  and  O_5 
REMARK    4  A    between atoms: C_13  and  O_14 
ROOT
HETATM    1  O   UNK N   1      40.251  44.366  47.703  0.00  0.00    -0.311 OA
ENDROOT
BRANCH   1   2
HETATM    2  C   UNK N   1      40.712  44.640  48.949  0.00  0.00     0.079 A 
HETATM    3  C   UNK N   1      41.711  45.602  49.136  0.00  0.00     0.073 A 
HETATM    4  C   UNK N   1      42.219  45.846  50.419  0.00  0.00     0.068 A 
HETATM    5  C   UNK N   1      41.710  45.138  51.521  0.00  0.00     0.043 A 
HETATM    6  C   UNK N   1      40.689  44.194  51.344  0.00  0.00    -0.057 A 
HETATM    7  C   UNK N   1      40.196  43.948  50.060  0.00  0.00     0.044 A 
HETATM    8  C   UNK N   1      40.133  43.450  52.523  0.00  0.00     0.048 C 
BRANCH   4   9
HETATM    9  O   UNK N   1      43.202  46.754  50.584  0.00  0.00    -0.361 OA
HETATM   10  H   UNK N   1      44.080  46.628  50.196  0.00  0.00     0.217 HD
ENDBRANCH   4   9
ENDBRANCH   1   2
BRANCH   1  11
HETATM   11  C   UNK N   1      41.092  43.969  46.711  0.00  0.00     0.079 A 
HETATM   12  C   UNK N   1      41.150  44.685  45.512  0.00  0.00     0.073 A 
HETATM   13  C   UNK N   1      41.986  44.248  44.473  0.00  0.00     0.068 A 
HETATM   14  C   UNK N   1      42.783  43.104  44.650  0.00  0.00     0.043 A 
HETATM   15  C   UNK N   1      42.748  42.397  45.858  0.00  0.00    -0.057 A 
HETATM   16  C   UNK N   1      41.898  42.828  46.883  0.00  0.00     0.044 A 
HETATM   17  C   UNK N   1      43.610  41.184  46.049  0.00  0.00     0.048 C 
BRANCH  13  18
HETATM   18  O   UNK N   1      42.010  44.927  43.309  0.00  0.00    -0.361 OA
HETATM   19  H   UNK N   1      41.726  44.519  42.478  0.00  0.00     0.217 HD
ENDBRANCH  13  18
ENDBRANCH   1  11
TORSDOF 4
ENDMDL
MODEL 4
REMARK VINA RESULT:      -6.9      3.064      4.078
REMARK  4 active torsions:
REMARK  status: ('A' for Active; 'I' for Inactive)
REMARK    1  A    between atoms: O_1  and  C_2 
REMARK    2  A    between atoms: O_1  and  C_11 
REMARK    3  A    between atoms: C_4  and  O_5 
REMARK    4  A    between atoms: C_13  and  O_14 
ROOT
HETATM    1  O   UNK N   1      40.745  43.887  47.576  0.00  0.00    -0.311 OA
ENDROOT
BRANCH   1   2
HETATM    2  C   UNK N   1      41.201  44.505  48.694  0.00  0.00     0.079 A 
HETATM    3  C   UNK N   1      41.099  43.875  49.940  0.00  0.00     0.073 A 
HETATM    4  C   UNK N   1      41.526  44.538  51.099  0.00  0.00     0.068 A 
HETATM    5  C   UNK N   1      42.074  45.829  51.007  0.00  0.00     0.043 A 
HETATM    6  C   UNK N   1      42.205  46.453  49.759  0.00  0.00    -0.057 A 
HETATM    7  C   UNK N   1      41.766  45.790  48.610  0.00  0.00     0.044 A 
HETATM    8  C   UNK N   1      42.807  47.824  49.658  0.00  0.00     0.048 C 
BRANCH   4   9
HETATM    9  O   UNK N   1      41.397  43.933  52.297  0.00  0.00    -0.361 OA
HETATM   10  H   UNK N   1      41.550  42.983  52.405  0.00  0.00     0.217 HD
ENDBRANCH   4   9
ENDBRANCH   1   2
BRANCH   1  11
HETATM   11  C   UNK N   1      41.559  43.669  46.509  0.00  0.00     0.079 A 
HETATM   12  C   UNK N   1      41.368  44.383  45.323  0.00  0.00     0.073 A 
HETATM   13  C   UNK N   1      42.181  44.126  44.209  0.00  0.00     0.068 A 
HETATM   14  C   UNK N   1      43.203  43.166  44.296  0.00  0.00     0.043 A 
HETATM   15  C   UNK N   1      43.416  42.465  45.489  0.00  0.00    -0.057 A 
HETATM   16  C   UNK N   1      42.590  42.715  46.591  0.00  0.00     0.044 A 
HETATM   17  C   UNK N   1      44.519  41.451  45.584  0.00  0.00     0.048 C 
BRANCH  13  18
HETATM   18  O   UNK N   1      41.966  44.797  43.060  0.00  0.00    -0.361 OA
HETATM   19  H   UNK N   1      41.122  45.238  42.881  0.00  0.00     0.217 HD
ENDBRANCH  13  18
ENDBRANCH   1  11
TORSDOF 4
ENDMDL
MODEL 5
REMARK VINA RESULT:      -6.8      1.284      2.074
REMARK  4 active torsions:
REMARK  status: ('A' for Active; 'I' for Inactive)
REMARK    1  A    between atoms: O_1  and  C_2 
REMARK    2  A    between atoms: O_1  and  C_11 
REMARK    3  A    between atoms: C_4  and  O_5 
REMARK    4  A    between atoms: C_13  and  O_14 
ROOT
HETATM    1  O   UNK N   1      41.742  44.184  49.289  0.00  0.00    -0.311 OA
ENDROOT
BRANCH   1   2
HETATM    2  C   UNK N   1      41.471  44.290  50.614  0.00  0.00     0.079 A 
HETATM    3  C   UNK N   1      42.132  45.243  51.396  0.00  0.00     0.073 A 
HETATM    4  C   UNK N   1      41.885  45.316  52.774  0.00  0.00     0.068 A 
HETATM    5  C   UNK N   1      40.957  44.443  53.367  0.00  0.00     0.043 A 
HETATM    6  C   UNK N   1      40.270  43.505  52.584  0.00  0.00    -0.057 A 
HETATM    7  C   UNK N   1      40.531  43.431  51.213  0.00  0.00     0.044 A 
HETATM    8  C   UNK N   1      39.266  42.584  53.213  0.00  0.00     0.048 C 
BRANCH   4   9
HETATM    9  O   UNK N   1      42.550  46.219  53.522  0.00  0.00    -0.361 OA
HETATM   10  H   UNK N   1      43.302  45.964  54.076  0.00  0.00     0.217 HD
ENDBRANCH   4   9
ENDBRANCH   1   2
BRANCH   1  11
HETATM   11  C   UNK N   1      41.350  45.144  48.410  0.00  0.00     0.079 A 
HETATM   12  C   UNK N   1      42.255  46.122  47.989  0.00  0.00     0.073 A 
HETATM   13  C   UNK N   1      41.837  47.137  47.116  0.00  0.00     0.068 A 
HETATM   14  C   UNK N   1      40.513  47.154  46.646  0.00  0.00     0.043 A 
HETATM   15  C   UNK N   1      39.608  46.163  47.044  0.00  0.00    -0.057 A 
HETATM   16  C   UNK N   1      40.027  45.163  47.929  0.00  0.00     0.044 A 
HETATM   17  C   UNK N   1      38.198  46.175  46.528  0.00  0.00     0.048 C 
BRANCH  13  18
HETATM   18  O   UNK N   1      42.709  48.095  46.743  0.00  0.00    -0.361 OA
HETATM   19  H   UNK N   1      43.130  48.678  47.392  0.00  0.00     0.217 HD
ENDBRANCH  13  18
ENDBRANCH   1  11
TORSDOF 4
ENDMDL
MODEL 6
REMARK VINA RESULT:      -6.6      4.033      7.955
REMARK  4 active torsions:
REMARK  status: ('A' for Active; 'I' for Inactive)
REMARK    1  A    between atoms: O_1  and  C_2 
REMARK    2  A    between atoms: O_1  and  C_11 
REMARK    3  A    between atoms: C_4  and  O_5 
REMARK    4  A    between atoms: C_13  and  O_14 
ROOT
HETATM    1  O   UNK N   1      39.866  48.637  46.179  0.00  0.00    -0.311 OA
ENDROOT
BRANCH   1   2
HETATM    2  C   UNK N   1      39.397  49.139  45.010  0.00  0.00     0.079 A 
HETATM    3  C   UNK N   1      38.352  48.498  44.334  0.00  0.00     0.073 A 
HETATM    4  C   UNK N   1      37.905  48.993  43.102  0.00  0.00     0.068 A 
HETATM    5  C   UNK N   1      38.493  50.145  42.553  0.00  0.00     0.043 A 
HETATM    6  C   UNK N   1      39.520  50.809  43.239  0.00  0.00    -0.057 A 
HETATM    7  C   UNK N   1      39.969  50.302  44.461  0.00  0.00     0.044 A 
HETATM    8  C   UNK N   1      40.136  52.049  42.662  0.00  0.00     0.048 C 
BRANCH   4   9
HETATM    9  O   UNK N   1      36.917  48.350  42.447  0.00  0.00    -0.361 OA
HETATM   10  H   UNK N   1      36.182  48.831  42.039  0.00  0.00     0.217 HD
ENDBRANCH   4   9
ENDBRANCH   1   2
BRANCH   1  11
HETATM   11  C   UNK N   1      39.899  47.298  46.409  0.00  0.00     0.079 A 
HETATM   12  C   UNK N   1      38.980  46.714  47.285  0.00  0.00     0.073 A 
HETATM   13  C   UNK N   1      39.042  45.338  47.555  0.00  0.00     0.068 A 
HETATM   14  C   UNK N   1      40.015  44.545  46.923  0.00  0.00     0.043 A 
HETATM   15  C   UNK N   1      40.922  45.119  46.025  0.00  0.00    -0.057 A 
HETATM   16  C   UNK N   1      40.865  46.495  45.774  0.00  0.00     0.044 A 
HETATM   17  C   UNK N   1      41.951  44.267  45.340  0.00  0.00     0.048 C 
BRANCH  13  18
HETATM   18  O   UNK N   1      38.172  44.791  48.427  0.00  0.00    -0.361 OA
HETATM   19  H   UNK N   1      38.217  44.984  49.376  0.00  0.00     0.217 HD
ENDBRANCH  13  18
ENDBRANCH   1  11
TORSDOF 4
ENDMDL
MODEL 7
REMARK VINA RESULT:      -6.5      3.908      5.704
REMARK  4 active torsions:
REMARK  status: ('A' for Active; 'I' for Inactive)
REMARK    1  A    between atoms: O_1  and  C_2 
REMARK    2  A    between atoms: O_1  and  C_11 
REMARK    3  A    between atoms: C_4  and  O_5 
REMARK    4  A    between atoms: C_13  and  O_14 
ROOT
HETATM    1  O   UNK N   1      40.682  48.623  45.955  0.00  0.00    -0.311 OA
ENDROOT
BRANCH   1   2
HETATM    2  C   UNK N   1      40.627  47.302  46.255  0.00  0.00     0.079 A 
HETATM    3  C   UNK N   1      41.514  46.403  45.652  0.00  0.00     0.073 A 
HETATM    4  C   UNK N   1      41.421  45.032  45.928  0.00  0.00     0.068 A 
HETATM    5  C   UNK N   1      40.449  44.562  46.826  0.00  0.00     0.043 A 
HETATM    6  C   UNK N   1      39.576  45.460  47.456  0.00  0.00    -0.057 A 
HETATM    7  C   UNK N   1      39.668  46.824  47.167  0.00  0.00     0.044 A 
HETATM    8  C   UNK N   1      38.549  44.961  48.429  0.00  0.00     0.048 C 
BRANCH   4   9
HETATM    9  O   UNK N   1      42.262  44.172  45.318  0.00  0.00    -0.361 OA
HETATM   10  H   UNK N   1      43.215  44.339  45.275  0.00  0.00     0.217 HD
ENDBRANCH   4   9
ENDBRANCH   1   2
BRANCH   1  11
HETATM   11  C   UNK N   1      39.966  49.143  44.923  0.00  0.00     0.079 A 
HETATM   12  C   UNK N   1      38.858  48.455  44.421  0.00  0.00     0.073 A 
HETATM   13  C   UNK N   1      38.147  48.971  43.327  0.00  0.00     0.068 A 
HETATM   14  C   UNK N   1      38.536  50.193  42.753  0.00  0.00     0.043 A 
HETATM   15  C   UNK N   1      39.629  50.900  43.268  0.00  0.00    -0.057 A 
HETATM   16  C   UNK N   1      40.345  50.370  44.348  0.00  0.00     0.044 A 
HETATM   17  C   UNK N   1      40.034  52.212  42.662  0.00  0.00     0.048 C 
BRANCH  13  18
HETATM   18  O   UNK N   1      37.100  48.282  42.830  0.00  0.00    -0.361 OA
HETATM   19  H   UNK N   1      36.203  48.648  42.838  0.00  0.00     0.217 HD
ENDBRANCH  13  18
ENDBRANCH   1  11
TORSDOF 4
ENDMDL
MODEL 8
REMARK VINA RESULT:      -6.4      3.967      7.657
REMARK  4 active torsions:
REMARK  status: ('A' for Active; 'I' for Inactive)
REMARK    1  A    between atoms: O_1  and  C_2 
REMARK    2  A    between atoms: O_1  and  C_11 
REMARK    3  A    between atoms: C_4  and  O_5 
REMARK    4  A    between atoms: C_13  and  O_14 
ROOT
HETATM    1  O   UNK N   1      39.874  48.660  46.240  0.00  0.00    -0.311 OA
ENDROOT
BRANCH   1   2
HETATM    2  C   UNK N   1      39.458  49.150  45.045  0.00  0.00     0.079 A 
HETATM    3  C   UNK N   1      40.094  50.259  44.476  0.00  0.00     0.073 A 
HETATM    4  C   UNK N   1      39.629  50.791  43.266  0.00  0.00     0.068 A 
HETATM    5  C   UNK N   1      38.535  50.198  42.613  0.00  0.00     0.043 A 
HETATM    6  C   UNK N   1      37.912  49.069  43.163  0.00  0.00    -0.057 A 
HETATM    7  C   UNK N   1      38.374  48.552  44.376  0.00  0.00     0.044 A 
HETATM    8  C   UNK N   1      36.755  48.425  42.458  0.00  0.00     0.048 C 
BRANCH   4   9
HETATM    9  O   UNK N   1      40.232  51.877  42.742  0.00  0.00    -0.361 OA
HETATM   10  H   UNK N   1      39.725  52.581  42.311  0.00  0.00     0.217 HD
ENDBRANCH   4   9
ENDBRANCH   1   2
BRANCH   1  11
HETATM   11  C   UNK N   1      39.911  47.323  46.480  0.00  0.00     0.079 A 
HETATM   12  C   UNK N   1      39.007  46.745  47.375  0.00  0.00     0.073 A 
HETATM   13  C   UNK N   1      39.075  45.372  47.655  0.00  0.00     0.068 A 
HETATM   14  C   UNK N   1      40.038  44.574  47.015  0.00  0.00     0.043 A 
HETATM   15  C   UNK N   1      40.931  45.143  46.097  0.00  0.00    -0.057 A 
HETATM   16  C   UNK N   1      40.868  46.516  45.837  0.00  0.00     0.044 A 
HETATM   17  C   UNK N   1      41.950  44.286  45.404  0.00  0.00     0.048 C 
BRANCH  13  18
HETATM   18  O   UNK N   1      38.220  44.832  48.546  0.00  0.00    -0.361 OA
HETATM   19  H   UNK N   1      38.331  43.927  48.872  0.00  0.00     0.217 HD
ENDBRANCH  13  18
ENDBRANCH   1  11
TORSDOF 4
ENDMDL
MODEL 9
REMARK VINA RESULT:      -6.3      2.930      4.185
REMARK  4 active torsions:
REMARK  status: ('A' for Active; 'I' for Inactive)
REMARK    1  A    between atoms: O_1  and  C_2 
REMARK    2  A    between atoms: O_1  and  C_11 
REMARK    3  A    between atoms: C_4  and  O_5 
REMARK    4  A    between atoms: C_13  and  O_14 
ROOT
HETATM    1  O   UNK N   1      40.634  43.934  47.754  0.00  0.00    -0.311 OA
ENDROOT
BRANCH   1   2
HETATM    2  C   UNK N   1      41.126  44.580  48.841  0.00  0.00     0.079 A 
HETATM    3  C   UNK N   1      41.006  44.011  50.114  0.00  0.00     0.073 A 
HETATM    4  C   UNK N   1      41.471  44.704  51.239  0.00  0.00     0.068 A 
HETATM    5  C   UNK N   1      42.078  45.963  51.087  0.00  0.00     0.043 A 
HETATM    6  C   UNK N   1      42.228  46.525  49.812  0.00  0.00    -0.057 A 
HETATM    7  C   UNK N   1      41.750  45.833  48.696  0.00  0.00     0.044 A 
HETATM    8  C   UNK N   1      42.890  47.861  49.646  0.00  0.00     0.048 C 
BRANCH   4   9
HETATM    9  O   UNK N   1      41.324  44.159  52.464  0.00  0.00    -0.361 OA
HETATM   10  H   UNK N   1      41.920  44.383  53.194  0.00  0.00     0.217 HD
ENDBRANCH   4   9
ENDBRANCH   1   2
BRANCH   1  11
HETATM   11  C   UNK N   1      41.453  43.511  46.754  0.00  0.00     0.079 A 
HETATM   12  C   UNK N   1      42.297  42.416  46.955  0.00  0.00     0.073 A 
HETATM   13  C   UNK N   1      43.172  42.007  45.937  0.00  0.00     0.068 A 
HETATM   14  C   UNK N   1      43.181  42.686  44.707  0.00  0.00     0.043 A 
HETATM   15  C   UNK N   1      42.319  43.768  44.491  0.00  0.00    -0.057 A 
HETATM   16  C   UNK N   1      41.461  44.181  45.517  0.00  0.00     0.044 A 
HETATM   17  C   UNK N   1      42.319  44.483  43.171  0.00  0.00     0.048 C 
BRANCH  13  18
HETATM   18  O   UNK N   1      44.006  40.970  46.154  0.00  0.00    -0.361 OA
HETATM   19  H   UNK N   1      44.225  40.674  47.050  0.00  0.00     0.217 HD
ENDBRANCH  13  18
ENDBRANCH   1  11
TORSDOF 4
ENDMDL
