MODEL 1
REMARK VINA RESULT:      -5.8      0.000      0.000
REMARK  11 active torsions:
REMARK  status: ('A' for Active; 'I' for Inactive)
REMARK    1  A    between atoms: C_6  and  C_8 
REMARK    2  A    between atoms: C_10  and  O_11 
REMARK    3  A    between atoms: C_13  and  O_14 
REMARK    4  A    between atoms: C_19  and  O_20 
REMARK    5  A    between atoms: O_20  and  C_21 
REMARK    6  A    between atoms: C_23  and  C_33 
REMARK    7  A    between atoms: C_24  and  O_25 
REMARK    8  A    between atoms: C_27  and  O_28 
REMARK    9  A    between atoms: C_30  and  O_31 
REMARK   10  A    between atoms: C_33  and  O_34 
REMARK   11  A    between atoms: C_37  and  O_38 
ROOT
HETATM    1  O   UNK N   1      31.699  42.767  64.849  0.00  0.00    -0.287 OA
HETATM    2  C   UNK N   1      32.273  43.210  63.871  0.00  0.00     0.190 A 
HETATM    3  C   UNK N   1      31.832  42.910  62.564  0.00  0.00     0.081 A 
HETATM    4  C   UNK N   1      32.549  43.467  61.483  0.00  0.00     0.095 A 
HETATM    5  O   UNK N   1      33.622  44.218  61.698  0.00  0.00    -0.309 OA
HETATM    6  C   UNK N   1      34.061  44.530  62.915  0.00  0.00     0.090 A 
HETATM    7  C   UNK N   1      33.383  44.039  64.044  0.00  0.00     0.094 A 
HETATM    8  C   UNK N   1      32.127  43.257  60.170  0.00  0.00     0.075 A 
HETATM    9  C   UNK N   1      30.991  42.474  59.905  0.00  0.00     0.077 A 
HETATM   10  C   UNK N   1      30.304  41.877  60.967  0.00  0.00     0.074 A 
HETATM   11  C   UNK N   1      30.705  42.094  62.297  0.00  0.00     0.085 A 
ENDROOT
BRANCH   9  12
HETATM   12  O   UNK N   1      30.522  42.304  58.642  0.00  0.00    -0.318 OA
BRANCH  12  13
HETATM   13  C   UNK N   1      30.658  43.246  57.630  0.00  0.00     0.298 C 
HETATM   14  O   UNK N   1      31.020  42.651  56.393  0.00  0.00    -0.348 OA
HETATM   15  C   UNK N   1      30.003  41.802  55.881  0.00  0.00     0.179 C 
HETATM   16  C   UNK N   1      28.679  42.572  55.635  0.00  0.00     0.180 C 
HETATM   17  C   UNK N   1      28.231  43.247  56.946  0.00  0.00     0.183 C 
HETATM   18  C   UNK N   1      29.386  44.101  57.492  0.00  0.00     0.205 C 
BRANCH  15  19
HETATM   19  C   UNK N   1      30.524  41.185  54.571  0.00  0.00     0.198 C 
BRANCH  19  20
HETATM   20  O   UNK N   1      31.815  41.643  54.267  0.00  0.00    -0.398 OA
HETATM   21  H   UNK N   1      32.002  42.410  54.870  0.00  0.00     0.209 HD
ENDBRANCH  19  20
ENDBRANCH  15  19
BRANCH  16  22
HETATM   22  O   UNK N   1      27.691  41.680  55.184  0.00  0.00    -0.390 OA
HETATM   23  H   UNK N   1      27.234  41.317  55.987  0.00  0.00     0.210 HD
ENDBRANCH  16  22
BRANCH  17  24
HETATM   24  O   UNK N   1      27.081  44.032  56.748  0.00  0.00    -0.390 OA
HETATM   25  H   UNK N   1      26.684  43.772  55.873  0.00  0.00     0.210 HD
ENDBRANCH  17  24
BRANCH  18  26
HETATM   26  O   UNK N   1      29.044  44.712  58.713  0.00  0.00    -0.388 OA
HETATM   27  H   UNK N   1      29.854  44.724  59.286  0.00  0.00     0.210 HD
ENDBRANCH  18  26
ENDBRANCH  12  13
ENDBRANCH   9  12
BRANCH  11  28
HETATM   28  O   UNK N   1      30.003  41.534  63.306  0.00  0.00    -0.360 OA
HETATM   29  H   UNK N   1      29.052  41.372  63.238  0.00  0.00     0.217 HD
ENDBRANCH  11  28
BRANCH   6  30
HETATM   30  C   UNK N   1      35.261  45.396  63.023  0.00  0.00     0.001 A 
HETATM   31  C   UNK N   1      36.520  44.861  62.706  0.00  0.00     0.053 A 
HETATM   32  C   UNK N   1      37.677  45.648  62.797  0.00  0.00     0.099 A 
HETATM   33  C   UNK N   1      37.585  46.993  63.177  0.00  0.00     0.101 A 
HETATM   34  C   UNK N   1      36.320  47.536  63.486  0.00  0.00     0.040 A 
HETATM   35  C   UNK N   1      35.173  46.742  63.422  0.00  0.00     0.017 A 
BRANCH  32  36
HETATM   36  O   UNK N   1      38.885  45.112  62.521  0.00  0.00    -0.358 OA
HETATM   37  H   UNK N   1      39.524  44.909  63.220  0.00  0.00     0.218 HD
ENDBRANCH  32  36
BRANCH  33  38
HETATM   38  O   UNK N   1      38.722  47.735  63.234  0.00  0.00    -0.353 OA
HETATM   39  C   UNK N   1      39.393  48.070  64.391  0.00  0.00     0.210 C 
ENDBRANCH  33  38
ENDBRANCH   6  30
TORSDOF 11
ENDMDL
MODEL 2
REMARK VINA RESULT:      -5.5      4.542      6.472
REMARK  11 active torsions:
REMARK  status: ('A' for Active; 'I' for Inactive)
REMARK    1  A    between atoms: C_6  and  C_8 
REMARK    2  A    between atoms: C_10  and  O_11 
REMARK    3  A    between atoms: C_13  and  O_14 
REMARK    4  A    between atoms: C_19  and  O_20 
REMARK    5  A    between atoms: O_20  and  C_21 
REMARK    6  A    between atoms: C_23  and  C_33 
REMARK    7  A    between atoms: C_24  and  O_25 
REMARK    8  A    between atoms: C_27  and  O_28 
REMARK    9  A    between atoms: C_30  and  O_31 
REMARK   10  A    between atoms: C_33  and  O_34 
REMARK   11  A    between atoms: C_37  and  O_38 
ROOT
HETATM    1  O   UNK N   1      31.359  43.076  61.145  0.00  0.00    -0.287 OA
HETATM    2  C   UNK N   1      30.858  43.519  60.127  0.00  0.00     0.190 A 
HETATM    3  C   UNK N   1      30.422  42.664  59.092  0.00  0.00     0.081 A 
HETATM    4  C   UNK N   1      29.849  43.257  57.946  0.00  0.00     0.095 A 
HETATM    5  O   UNK N   1      29.759  44.576  57.839  0.00  0.00    -0.309 OA
HETATM    6  C   UNK N   1      30.149  45.413  58.798  0.00  0.00     0.090 A 
HETATM    7  C   UNK N   1      30.704  44.900  59.983  0.00  0.00     0.094 A 
HETATM    8  C   UNK N   1      29.344  42.462  56.916  0.00  0.00     0.075 A 
HETATM    9  C   UNK N   1      29.416  41.062  56.998  0.00  0.00     0.077 A 
HETATM   10  C   UNK N   1      30.027  40.468  58.106  0.00  0.00     0.074 A 
HETATM   11  C   UNK N   1      30.524  41.253  59.161  0.00  0.00     0.085 A 
ENDROOT
BRANCH   9  12
HETATM   12  O   UNK N   1      28.878  40.264  56.039  0.00  0.00    -0.318 OA
BRANCH  12  13
HETATM   13  C   UNK N   1      29.419  40.102  54.770  0.00  0.00     0.298 C 
HETATM   14  O   UNK N   1      30.292  38.985  54.701  0.00  0.00    -0.348 OA
HETATM   15  C   UNK N   1      29.613  37.753  54.900  0.00  0.00     0.179 C 
HETATM   16  C   UNK N   1      28.510  37.525  53.832  0.00  0.00     0.180 C 
HETATM   17  C   UNK N   1      27.526  38.711  53.854  0.00  0.00     0.183 C 
HETATM   18  C   UNK N   1      28.315  40.021  53.701  0.00  0.00     0.205 C 
BRANCH  15  19
HETATM   19  C   UNK N   1      30.660  36.627  54.847  0.00  0.00     0.198 C 
BRANCH  19  20
HETATM   20  O   UNK N   1      31.712  36.947  53.975  0.00  0.00    -0.398 OA
HETATM   21  H   UNK N   1      32.400  37.423  54.509  0.00  0.00     0.209 HD
ENDBRANCH  19  20
ENDBRANCH  15  19
BRANCH  16  22
HETATM   22  O   UNK N   1      27.832  36.325  54.104  0.00  0.00    -0.390 OA
HETATM   23  H   UNK N   1      28.175  35.643  53.470  0.00  0.00     0.210 HD
ENDBRANCH  16  22
BRANCH  17  24
HETATM   24  O   UNK N   1      26.560  38.590  52.840  0.00  0.00    -0.390 OA
HETATM   25  H   UNK N   1      26.930  37.989  52.139  0.00  0.00     0.210 HD
ENDBRANCH  17  24
BRANCH  18  26
HETATM   26  O   UNK N   1      27.467  41.143  53.754  0.00  0.00    -0.388 OA
HETATM   27  H   UNK N   1      27.197  41.278  54.700  0.00  0.00     0.210 HD
ENDBRANCH  18  26
ENDBRANCH  12  13
ENDBRANCH   9  12
BRANCH  11  28
HETATM   28  O   UNK N   1      31.079  40.653  60.237  0.00  0.00    -0.360 OA
HETATM   29  H   UNK N   1      31.968  40.878  60.546  0.00  0.00     0.217 HD
ENDBRANCH  11  28
BRANCH   6  30
HETATM   30  C   UNK N   1      29.977  46.869  58.567  0.00  0.00     0.001 A 
HETATM   31  C   UNK N   1      30.399  47.422  57.347  0.00  0.00     0.053 A 
HETATM   32  C   UNK N   1      30.254  48.792  57.093  0.00  0.00     0.099 A 
HETATM   33  C   UNK N   1      29.652  49.625  58.045  0.00  0.00     0.101 A 
HETATM   34  C   UNK N   1      29.217  49.070  59.268  0.00  0.00     0.040 A 
HETATM   35  C   UNK N   1      29.390  47.710  59.530  0.00  0.00     0.017 A 
BRANCH  32  36
HETATM   36  O   UNK N   1      30.694  49.317  55.929  0.00  0.00    -0.358 OA
HETATM   37  H   UNK N   1      30.652  50.268  55.751  0.00  0.00     0.218 HD
ENDBRANCH  32  36
BRANCH  33  38
HETATM   38  O   UNK N   1      29.505  50.946  57.759  0.00  0.00    -0.353 OA
HETATM   39  C   UNK N   1      28.839  51.859  58.549  0.00  0.00     0.210 C 
ENDBRANCH  33  38
ENDBRANCH   6  30
TORSDOF 11
ENDMDL
MODEL 3
REMARK VINA RESULT:      -5.5      4.492      6.507
REMARK  11 active torsions:
REMARK  status: ('A' for Active; 'I' for Inactive)
REMARK    1  A    between atoms: C_6  and  C_8 
REMARK    2  A    between atoms: C_10  and  O_11 
REMARK    3  A    between atoms: C_13  and  O_14 
REMARK    4  A    between atoms: C_19  and  O_20 
REMARK    5  A    between atoms: O_20  and  C_21 
REMARK    6  A    between atoms: C_23  and  C_33 
REMARK    7  A    between atoms: C_24  and  O_25 
REMARK    8  A    between atoms: C_27  and  O_28 
REMARK    9  A    between atoms: C_30  and  O_31 
REMARK   10  A    between atoms: C_33  and  O_34 
REMARK   11  A    between atoms: C_37  and  O_38 
ROOT
HETATM    1  O   UNK N   1      31.526  43.612  60.948  0.00  0.00    -0.287 OA
HETATM    2  C   UNK N   1      30.921  44.141  60.033  0.00  0.00     0.190 A 
HETATM    3  C   UNK N   1      30.454  43.391  58.932  0.00  0.00     0.081 A 
HETATM    4  C   UNK N   1      29.757  44.079  57.915  0.00  0.00     0.095 A 
HETATM    5  O   UNK N   1      29.582  45.392  57.983  0.00  0.00    -0.309 OA
HETATM    6  C   UNK N   1      29.999  46.131  59.009  0.00  0.00     0.090 A 
HETATM    7  C   UNK N   1      30.675  45.516  60.077  0.00  0.00     0.094 A 
HETATM    8  C   UNK N   1      29.219  43.384  56.832  0.00  0.00     0.075 A 
HETATM    9  C   UNK N   1      29.378  41.992  56.730  0.00  0.00     0.077 A 
HETATM   10  C   UNK N   1      30.110  41.310  57.707  0.00  0.00     0.074 A 
HETATM   11  C   UNK N   1      30.643  41.992  58.814  0.00  0.00     0.085 A 
ENDROOT
BRANCH   9  12
HETATM   12  O   UNK N   1      28.812  41.282  55.719  0.00  0.00    -0.318 OA
BRANCH  12  13
HETATM   13  C   UNK N   1      27.485  41.409  55.330  0.00  0.00     0.298 C 
HETATM   14  O   UNK N   1      27.296  42.486  54.424  0.00  0.00    -0.348 OA
HETATM   15  C   UNK N   1      27.957  42.273  53.184  0.00  0.00     0.179 C 
HETATM   16  C   UNK N   1      27.444  40.994  52.470  0.00  0.00     0.180 C 
HETATM   17  C   UNK N   1      27.619  39.783  53.407  0.00  0.00     0.183 C 
HETATM   18  C   UNK N   1      26.945  40.088  54.754  0.00  0.00     0.205 C 
BRANCH  15  19
HETATM   19  C   UNK N   1      27.719  43.516  52.308  0.00  0.00     0.198 C 
BRANCH  19  20
HETATM   20  O   UNK N   1      28.798  43.745  51.440  0.00  0.00    -0.398 OA
HETATM   21  H   UNK N   1      29.616  43.420  51.900  0.00  0.00     0.209 HD
ENDBRANCH  19  20
ENDBRANCH  15  19
BRANCH  16  22
HETATM   22  O   UNK N   1      28.165  40.798  51.280  0.00  0.00    -0.390 OA
HETATM   23  H   UNK N   1      27.503  40.702  50.547  0.00  0.00     0.210 HD
ENDBRANCH  16  22
BRANCH  17  24
HETATM   24  O   UNK N   1      27.085  38.615  52.835  0.00  0.00    -0.390 OA
HETATM   25  H   UNK N   1      26.276  38.366  53.358  0.00  0.00     0.210 HD
ENDBRANCH  17  24
BRANCH  18  26
HETATM   26  O   UNK N   1      27.108  39.028  55.664  0.00  0.00    -0.388 OA
HETATM   27  H   UNK N   1      26.823  39.347  56.560  0.00  0.00     0.210 HD
ENDBRANCH  18  26
ENDBRANCH  12  13
ENDBRANCH   9  12
BRANCH  11  28
HETATM   28  O   UNK N   1      31.316  41.305  59.762  0.00  0.00    -0.360 OA
HETATM   29  H   UNK N   1      31.030  41.295  60.686  0.00  0.00     0.217 HD
ENDBRANCH  11  28
BRANCH   6  30
HETATM   30  C   UNK N   1      29.724  47.589  58.978  0.00  0.00     0.001 A 
HETATM   31  C   UNK N   1      30.123  48.335  57.857  0.00  0.00     0.053 A 
HETATM   32  C   UNK N   1      29.882  49.714  57.791  0.00  0.00     0.099 A 
HETATM   33  C   UNK N   1      29.207  50.361  58.835  0.00  0.00     0.101 A 
HETATM   34  C   UNK N   1      28.795  49.611  59.957  0.00  0.00     0.040 A 
HETATM   35  C   UNK N   1      29.063  48.243  60.032  0.00  0.00     0.017 A 
BRANCH  32  36
HETATM   36  O   UNK N   1      30.301  50.426  56.723  0.00  0.00    -0.358 OA
HETATM   37  H   UNK N   1      31.190  50.318  56.356  0.00  0.00     0.218 HD
ENDBRANCH  32  36
BRANCH  33  38
HETATM   38  O   UNK N   1      28.968  51.695  58.730  0.00  0.00    -0.353 OA
HETATM   39  C   UNK N   1      28.135  52.419  59.558  0.00  0.00     0.210 C 
ENDBRANCH  33  38
ENDBRANCH   6  30
TORSDOF 11
ENDMDL
MODEL 4
REMARK VINA RESULT:      -5.4      4.708      7.320
REMARK  11 active torsions:
REMARK  status: ('A' for Active; 'I' for Inactive)
REMARK    1  A    between atoms: C_6  and  C_8 
REMARK    2  A    between atoms: C_10  and  O_11 
REMARK    3  A    between atoms: C_13  and  O_14 
REMARK    4  A    between atoms: C_19  and  O_20 
REMARK    5  A    between atoms: O_20  and  C_21 
REMARK    6  A    between atoms: C_23  and  C_33 
REMARK    7  A    between atoms: C_24  and  O_25 
REMARK    8  A    between atoms: C_27  and  O_28 
REMARK    9  A    between atoms: C_30  and  O_31 
REMARK   10  A    between atoms: C_33  and  O_34 
REMARK   11  A    between atoms: C_37  and  O_38 
ROOT
HETATM    1  O   UNK N   1      32.913  42.843  57.033  0.00  0.00    -0.287 OA
HETATM    2  C   UNK N   1      31.729  43.074  57.207  0.00  0.00     0.190 A 
HETATM    3  C   UNK N   1      30.764  42.723  56.239  0.00  0.00     0.081 A 
HETATM    4  C   UNK N   1      29.412  43.020  56.520  0.00  0.00     0.095 A 
HETATM    5  O   UNK N   1      29.075  43.640  57.643  0.00  0.00    -0.309 OA
HETATM    6  C   UNK N   1      29.956  43.976  58.583  0.00  0.00     0.090 A 
HETATM    7  C   UNK N   1      31.318  43.688  58.392  0.00  0.00     0.094 A 
HETATM    8  C   UNK N   1      28.406  42.645  55.630  0.00  0.00     0.075 A 
HETATM    9  C   UNK N   1      28.725  41.981  54.434  0.00  0.00     0.077 A 
HETATM   10  C   UNK N   1      30.066  41.727  54.125  0.00  0.00     0.074 A 
HETATM   11  C   UNK N   1      31.091  42.083  55.019  0.00  0.00     0.085 A 
ENDROOT
BRANCH   9  12
HETATM   12  O   UNK N   1      27.762  41.549  53.579  0.00  0.00    -0.318 OA
BRANCH  12  13
HETATM   13  C   UNK N   1      28.023  40.871  52.394  0.00  0.00     0.298 C 
HETATM   14  O   UNK N   1      27.223  39.706  52.260  0.00  0.00    -0.348 OA
HETATM   15  C   UNK N   1      25.840  40.009  52.138  0.00  0.00     0.179 C 
HETATM   16  C   UNK N   1      25.551  40.894  50.897  0.00  0.00     0.180 C 
HETATM   17  C   UNK N   1      26.396  42.180  50.981  0.00  0.00     0.183 C 
HETATM   18  C   UNK N   1      27.872  41.801  51.177  0.00  0.00     0.205 C 
BRANCH  15  19
HETATM   19  C   UNK N   1      25.076  38.676  52.044  0.00  0.00     0.198 C 
BRANCH  19  20
HETATM   20  O   UNK N   1      24.978  38.235  50.715  0.00  0.00    -0.398 OA
HETATM   21  H   UNK N   1      24.141  37.705  50.644  0.00  0.00     0.209 HD
ENDBRANCH  19  20
ENDBRANCH  15  19
BRANCH  16  22
HETATM   22  O   UNK N   1      24.183  41.211  50.852  0.00  0.00    -0.390 OA
HETATM   23  H   UNK N   1      23.685  40.408  51.155  0.00  0.00     0.210 HD
ENDBRANCH  16  22
BRANCH  17  24
HETATM   24  O   UNK N   1      26.233  42.973  49.831  0.00  0.00    -0.390 OA
HETATM   25  H   UNK N   1      26.139  42.360  49.053  0.00  0.00     0.210 HD
ENDBRANCH  17  24
BRANCH  18  26
HETATM   26  O   UNK N   1      28.686  42.942  51.300  0.00  0.00    -0.388 OA
HETATM   27  H   UNK N   1      29.070  43.142  50.406  0.00  0.00     0.210 HD
ENDBRANCH  18  26
ENDBRANCH  12  13
ENDBRANCH   9  12
BRANCH  11  28
HETATM   28  O   UNK N   1      32.374  41.795  54.712  0.00  0.00    -0.360 OA
HETATM   29  H   UNK N   1      33.069  41.781  55.384  0.00  0.00     0.217 HD
ENDBRANCH  11  28
BRANCH   6  30
HETATM   30  C   UNK N   1      29.449  44.647  59.806  0.00  0.00     0.001 A 
HETATM   31  C   UNK N   1      30.294  45.528  60.501  0.00  0.00     0.053 A 
HETATM   32  C   UNK N   1      29.852  46.180  61.661  0.00  0.00     0.099 A 
HETATM   33  C   UNK N   1      28.545  45.983  62.123  0.00  0.00     0.101 A 
HETATM   34  C   UNK N   1      27.690  45.107  61.421  0.00  0.00     0.040 A 
HETATM   35  C   UNK N   1      28.143  44.437  60.283  0.00  0.00     0.017 A 
BRANCH  32  36
HETATM   36  O   UNK N   1      30.686  46.998  62.338  0.00  0.00    -0.358 OA
HETATM   37  H   UNK N   1      30.560  47.187  63.280  0.00  0.00     0.218 HD
ENDBRANCH  32  36
BRANCH  33  38
HETATM   38  O   UNK N   1      28.139  46.647  63.238  0.00  0.00    -0.353 OA
HETATM   39  C   UNK N   1      28.023  46.091  64.494  0.00  0.00     0.210 C 
ENDBRANCH  33  38
ENDBRANCH   6  30
TORSDOF 11
ENDMDL
MODEL 5
REMARK VINA RESULT:      -5.2      4.368      8.687
REMARK  11 active torsions:
REMARK  status: ('A' for Active; 'I' for Inactive)
REMARK    1  A    between atoms: C_6  and  C_8 
REMARK    2  A    between atoms: C_10  and  O_11 
REMARK    3  A    between atoms: C_13  and  O_14 
REMARK    4  A    between atoms: C_19  and  O_20 
REMARK    5  A    between atoms: O_20  and  C_21 
REMARK    6  A    between atoms: C_23  and  C_33 
REMARK    7  A    between atoms: C_24  and  O_25 
REMARK    8  A    between atoms: C_27  and  O_28 
REMARK    9  A    between atoms: C_30  and  O_31 
REMARK   10  A    between atoms: C_33  and  O_34 
REMARK   11  A    between atoms: C_37  and  O_38 
ROOT
HETATM    1  O   UNK N   1      32.056  43.483  61.515  0.00  0.00    -0.287 OA
HETATM    2  C   UNK N   1      31.276  43.674  60.599  0.00  0.00     0.190 A 
HETATM    3  C   UNK N   1      30.555  44.883  60.490  0.00  0.00     0.081 A 
HETATM    4  C   UNK N   1      29.675  45.028  59.396  0.00  0.00     0.095 A 
HETATM    5  O   UNK N   1      29.511  44.042  58.524  0.00  0.00    -0.309 OA
HETATM    6  C   UNK N   1      30.181  42.893  58.588  0.00  0.00     0.090 A 
HETATM    7  C   UNK N   1      31.099  42.683  59.631  0.00  0.00     0.094 A 
HETATM    8  C   UNK N   1      28.980  46.222  59.201  0.00  0.00     0.075 A 
HETATM    9  C   UNK N   1      29.134  47.290  60.100  0.00  0.00     0.077 A 
HETATM   10  C   UNK N   1      29.966  47.137  61.214  0.00  0.00     0.074 A 
HETATM   11  C   UNK N   1      30.687  45.947  61.416  0.00  0.00     0.085 A 
ENDROOT
BRANCH   9  12
HETATM   12  O   UNK N   1      28.518  48.484  59.900  0.00  0.00    -0.318 OA
BRANCH  12  13
HETATM   13  C   UNK N   1      29.180  49.705  59.880  0.00  0.00     0.298 C 
HETATM   14  O   UNK N   1      30.058  49.817  58.770  0.00  0.00    -0.348 OA
HETATM   15  C   UNK N   1      29.366  49.827  57.530  0.00  0.00     0.179 C 
HETATM   16  C   UNK N   1      28.372  51.015  57.434  0.00  0.00     0.180 C 
HETATM   17  C   UNK N   1      27.389  50.953  58.619  0.00  0.00     0.183 C 
HETATM   18  C   UNK N   1      28.186  50.878  59.931  0.00  0.00     0.205 C 
BRANCH  15  19
HETATM   19  C   UNK N   1      30.416  49.906  56.407  0.00  0.00     0.198 C 
BRANCH  19  20
HETATM   20  O   UNK N   1      30.743  51.237  56.105  0.00  0.00    -0.398 OA
HETATM   21  H   UNK N   1      30.630  51.350  55.125  0.00  0.00     0.209 HD
ENDBRANCH  19  20
ENDBRANCH  15  19
BRANCH  16  22
HETATM   22  O   UNK N   1      27.674  50.949  56.217  0.00  0.00    -0.390 OA
HETATM   23  H   UNK N   1      28.075  50.213  55.687  0.00  0.00     0.210 HD
ENDBRANCH  16  22
BRANCH  17  24
HETATM   24  O   UNK N   1      26.526  52.063  58.623  0.00  0.00    -0.390 OA
HETATM   25  H   UNK N   1      26.894  52.735  57.988  0.00  0.00     0.210 HD
ENDBRANCH  17  24
BRANCH  18  26
HETATM   26  O   UNK N   1      27.334  50.780  61.047  0.00  0.00    -0.388 OA
HETATM   27  H   UNK N   1      26.503  50.320  60.757  0.00  0.00     0.210 HD
ENDBRANCH  18  26
ENDBRANCH  12  13
ENDBRANCH   9  12
BRANCH  11  28
HETATM   28  O   UNK N   1      31.510  45.838  62.481  0.00  0.00    -0.360 OA
HETATM   29  H   UNK N   1      32.448  45.622  62.382  0.00  0.00     0.217 HD
ENDBRANCH  11  28
BRANCH   6  30
HETATM   30  C   UNK N   1      29.924  41.875  57.539  0.00  0.00     0.001 A 
HETATM   31  C   UNK N   1      30.216  42.186  56.201  0.00  0.00     0.053 A 
HETATM   32  C   UNK N   1      29.987  41.251  55.182  0.00  0.00     0.099 A 
HETATM   33  C   UNK N   1      29.490  39.979  55.493  0.00  0.00     0.101 A 
HETATM   34  C   UNK N   1      29.205  39.661  56.838  0.00  0.00     0.040 A 
HETATM   35  C   UNK N   1      29.408  40.604  57.847  0.00  0.00     0.017 A 
BRANCH  32  36
HETATM   36  O   UNK N   1      30.241  41.573  53.895  0.00  0.00    -0.358 OA
HETATM   37  H   UNK N   1      29.543  41.882  53.299  0.00  0.00     0.218 HD
ENDBRANCH  32  36
BRANCH  33  38
HETATM   38  O   UNK N   1      29.299  39.087  54.484  0.00  0.00    -0.353 OA
HETATM   39  C   UNK N   1      28.075  38.750  53.945  0.00  0.00     0.210 C 
ENDBRANCH  33  38
ENDBRANCH   6  30
TORSDOF 11
ENDMDL
MODEL 6
REMARK VINA RESULT:      -5.1      4.144      6.547
REMARK  11 active torsions:
REMARK  status: ('A' for Active; 'I' for Inactive)
REMARK    1  A    between atoms: C_6  and  C_8 
REMARK    2  A    between atoms: C_10  and  O_11 
REMARK    3  A    between atoms: C_13  and  O_14 
REMARK    4  A    between atoms: C_19  and  O_20 
REMARK    5  A    between atoms: O_20  and  C_21 
REMARK    6  A    between atoms: C_23  and  C_33 
REMARK    7  A    between atoms: C_24  and  O_25 
REMARK    8  A    between atoms: C_27  and  O_28 
REMARK    9  A    between atoms: C_30  and  O_31 
REMARK   10  A    between atoms: C_33  and  O_34 
REMARK   11  A    between atoms: C_37  and  O_38 
ROOT
HETATM    1  O   UNK N   1      31.155  44.898  62.243  0.00  0.00    -0.287 OA
HETATM    2  C   UNK N   1      30.756  45.402  61.208  0.00  0.00     0.190 A 
HETATM    3  C   UNK N   1      30.785  44.691  59.988  0.00  0.00     0.081 A 
HETATM    4  C   UNK N   1      30.299  45.344  58.834  0.00  0.00     0.095 A 
HETATM    5  O   UNK N   1      29.865  46.596  58.897  0.00  0.00    -0.309 OA
HETATM    6  C   UNK N   1      29.814  47.294  60.030  0.00  0.00     0.090 A 
HETATM    7  C   UNK N   1      30.250  46.704  61.229  0.00  0.00     0.094 A 
HETATM    8  C   UNK N   1      30.246  44.674  57.612  0.00  0.00     0.075 A 
HETATM    9  C   UNK N   1      30.690  43.345  57.509  0.00  0.00     0.077 A 
HETATM   10  C   UNK N   1      31.219  42.708  58.637  0.00  0.00     0.074 A 
HETATM   11  C   UNK N   1      31.263  43.362  59.880  0.00  0.00     0.085 A 
ENDROOT
BRANCH   9  12
HETATM   12  O   UNK N   1      30.593  42.649  56.347  0.00  0.00    -0.318 OA
BRANCH  12  13
HETATM   13  C   UNK N   1      29.712  41.594  56.147  0.00  0.00     0.298 C 
HETATM   14  O   UNK N   1      28.382  41.932  56.511  0.00  0.00    -0.348 OA
HETATM   15  C   UNK N   1      27.834  42.946  55.679  0.00  0.00     0.179 C 
HETATM   16  C   UNK N   1      27.792  42.511  54.191  0.00  0.00     0.180 C 
HETATM   17  C   UNK N   1      29.213  42.125  53.733  0.00  0.00     0.183 C 
HETATM   18  C   UNK N   1      29.785  41.076  54.699  0.00  0.00     0.205 C 
BRANCH  15  19
HETATM   19  C   UNK N   1      26.417  43.258  56.194  0.00  0.00     0.198 C 
BRANCH  19  20
HETATM   20  O   UNK N   1      26.023  44.561  55.849  0.00  0.00    -0.398 OA
HETATM   21  H   UNK N   1      25.865  44.568  54.869  0.00  0.00     0.209 HD
ENDBRANCH  19  20
ENDBRANCH  15  19
BRANCH  16  22
HETATM   22  O   UNK N   1      27.297  43.565  53.405  0.00  0.00    -0.390 OA
HETATM   23  H   UNK N   1      26.322  43.417  53.295  0.00  0.00     0.210 HD
ENDBRANCH  16  22
BRANCH  17  24
HETATM   24  O   UNK N   1      29.208  41.637  52.414  0.00  0.00    -0.390 OA
HETATM   25  H   UNK N   1      28.284  41.738  52.058  0.00  0.00     0.210 HD
ENDBRANCH  17  24
BRANCH  18  26
HETATM   26  O   UNK N   1      31.099  40.715  54.350  0.00  0.00    -0.388 OA
HETATM   27  H   UNK N   1      31.684  41.502  54.506  0.00  0.00     0.210 HD
ENDBRANCH  18  26
ENDBRANCH  12  13
ENDBRANCH   9  12
BRANCH  11  28
HETATM   28  O   UNK N   1      31.746  42.712  60.960  0.00  0.00    -0.360 OA
HETATM   29  H   UNK N   1      32.676  42.770  61.218  0.00  0.00     0.217 HD
ENDBRANCH  11  28
BRANCH   6  30
HETATM   30  C   UNK N   1      29.287  48.680  59.973  0.00  0.00     0.001 A 
HETATM   31  C   UNK N   1      29.599  49.484  58.865  0.00  0.00     0.053 A 
HETATM   32  C   UNK N   1      29.121  50.799  58.775  0.00  0.00     0.099 A 
HETATM   33  C   UNK N   1      28.296  51.317  59.782  0.00  0.00     0.101 A 
HETATM   34  C   UNK N   1      27.973  50.508  60.891  0.00  0.00     0.040 A 
HETATM   35  C   UNK N   1      28.474  49.209  60.991  0.00  0.00     0.017 A 
BRANCH  32  36
HETATM   36  O   UNK N   1      29.456  51.572  57.720  0.00  0.00    -0.358 OA
HETATM   37  H   UNK N   1      30.342  51.950  57.626  0.00  0.00     0.218 HD
ENDBRANCH  32  36
BRANCH  33  38
HETATM   38  O   UNK N   1      27.831  52.588  59.654  0.00  0.00    -0.353 OA
HETATM   39  C   UNK N   1      26.554  53.001  59.974  0.00  0.00     0.210 C 
ENDBRANCH  33  38
ENDBRANCH   6  30
TORSDOF 11
ENDMDL
MODEL 7
REMARK VINA RESULT:      -5.0      2.099      2.649
REMARK  11 active torsions:
REMARK  status: ('A' for Active; 'I' for Inactive)
REMARK    1  A    between atoms: C_6  and  C_8 
REMARK    2  A    between atoms: C_10  and  O_11 
REMARK    3  A    between atoms: C_13  and  O_14 
REMARK    4  A    between atoms: C_19  and  O_20 
REMARK    5  A    between atoms: O_20  and  C_21 
REMARK    6  A    between atoms: C_23  and  C_33 
REMARK    7  A    between atoms: C_24  and  O_25 
REMARK    8  A    between atoms: C_27  and  O_28 
REMARK    9  A    between atoms: C_30  and  O_31 
REMARK   10  A    between atoms: C_33  and  O_34 
REMARK   11  A    between atoms: C_37  and  O_38 
ROOT
HETATM    1  O   UNK N   1      30.734  46.811  62.942  0.00  0.00    -0.287 OA
HETATM    2  C   UNK N   1      31.492  45.921  62.599  0.00  0.00     0.190 A 
HETATM    3  C   UNK N   1      31.108  44.961  61.638  0.00  0.00     0.081 A 
HETATM    4  C   UNK N   1      32.046  43.965  61.292  0.00  0.00     0.095 A 
HETATM    5  O   UNK N   1      33.235  43.920  61.880  0.00  0.00    -0.309 OA
HETATM    6  C   UNK N   1      33.635  44.814  62.782  0.00  0.00     0.090 A 
HETATM    7  C   UNK N   1      32.770  45.855  63.159  0.00  0.00     0.094 A 
HETATM    8  C   UNK N   1      31.748  43.025  60.305  0.00  0.00     0.075 A 
HETATM    9  C   UNK N   1      30.503  43.045  59.656  0.00  0.00     0.077 A 
HETATM   10  C   UNK N   1      29.549  43.998  60.029  0.00  0.00     0.074 A 
HETATM   11  C   UNK N   1      29.839  44.964  61.007  0.00  0.00     0.085 A 
ENDROOT
BRANCH   9  12
HETATM   12  O   UNK N   1      30.209  42.182  58.650  0.00  0.00    -0.318 OA
BRANCH  12  13
HETATM   13  C   UNK N   1      29.109  42.312  57.811  0.00  0.00     0.298 C 
HETATM   14  O   UNK N   1      29.491  42.501  56.457  0.00  0.00    -0.348 OA
HETATM   15  C   UNK N   1      30.151  41.365  55.916  0.00  0.00     0.179 C 
HETATM   16  C   UNK N   1      29.250  40.103  55.954  0.00  0.00     0.180 C 
HETATM   17  C   UNK N   1      28.797  39.843  57.404  0.00  0.00     0.183 C 
HETATM   18  C   UNK N   1      28.149  41.119  57.964  0.00  0.00     0.205 C 
BRANCH  15  19
HETATM   19  C   UNK N   1      30.553  41.702  54.469  0.00  0.00     0.198 C 
BRANCH  19  20
HETATM   20  O   UNK N   1      31.945  41.835  54.342  0.00  0.00    -0.398 OA
HETATM   21  H   UNK N   1      32.322  40.918  54.289  0.00  0.00     0.209 HD
ENDBRANCH  19  20
ENDBRANCH  15  19
BRANCH  16  22
HETATM   22  O   UNK N   1      29.965  38.998  55.462  0.00  0.00    -0.390 OA
HETATM   23  H   UNK N   1      29.914  38.284  56.150  0.00  0.00     0.210 HD
ENDBRANCH  16  22
BRANCH  17  24
HETATM   24  O   UNK N   1      27.904  38.759  57.473  0.00  0.00    -0.390 OA
HETATM   25  H   UNK N   1      26.996  39.126  57.646  0.00  0.00     0.210 HD
ENDBRANCH  17  24
BRANCH  18  26
HETATM   26  O   UNK N   1      27.751  40.950  59.303  0.00  0.00    -0.388 OA
HETATM   27  H   UNK N   1      27.239  41.757  59.574  0.00  0.00     0.210 HD
ENDBRANCH  18  26
ENDBRANCH  12  13
ENDBRANCH   9  12
BRANCH  11  28
HETATM   28  O   UNK N   1      28.913  45.894  61.324  0.00  0.00    -0.360 OA
HETATM   29  H   UNK N   1      28.150  46.069  60.756  0.00  0.00     0.217 HD
ENDBRANCH  11  28
BRANCH   6  30
HETATM   30  C   UNK N   1      34.998  44.667  63.353  0.00  0.00     0.001 A 
HETATM   31  C   UNK N   1      36.110  44.945  62.543  0.00  0.00     0.053 A 
HETATM   32  C   UNK N   1      37.413  44.818  63.045  0.00  0.00     0.099 A 
HETATM   33  C   UNK N   1      37.618  44.440  64.379  0.00  0.00     0.101 A 
HETATM   34  C   UNK N   1      36.501  44.170  65.198  0.00  0.00     0.040 A 
HETATM   35  C   UNK N   1      35.206  44.271  64.685  0.00  0.00     0.017 A 
BRANCH  32  36
HETATM   36  O   UNK N   1      38.475  45.056  62.247  0.00  0.00    -0.358 OA
HETATM   37  H   UNK N   1      38.659  45.938  61.892  0.00  0.00     0.218 HD
ENDBRANCH  32  36
BRANCH  33  38
HETATM   38  O   UNK N   1      38.893  44.347  64.843  0.00  0.00    -0.353 OA
HETATM   39  C   UNK N   1      39.533  45.305  65.600  0.00  0.00     0.210 C 
ENDBRANCH  33  38
ENDBRANCH   6  30
TORSDOF 11
ENDMDL
MODEL 8
REMARK VINA RESULT:      -4.9      4.840      7.339
REMARK  11 active torsions:
REMARK  status: ('A' for Active; 'I' for Inactive)
REMARK    1  A    between atoms: C_6  and  C_8 
REMARK    2  A    between atoms: C_10  and  O_11 
REMARK    3  A    between atoms: C_13  and  O_14 
REMARK    4  A    between atoms: C_19  and  O_20 
REMARK    5  A    between atoms: O_20  and  C_21 
REMARK    6  A    between atoms: C_23  and  C_33 
REMARK    7  A    between atoms: C_24  and  O_25 
REMARK    8  A    between atoms: C_27  and  O_28 
REMARK    9  A    between atoms: C_30  and  O_31 
REMARK   10  A    between atoms: C_33  and  O_34 
REMARK   11  A    between atoms: C_37  and  O_38 
ROOT
HETATM    1  O   UNK N   1      32.696  43.130  56.093  0.00  0.00    -0.287 OA
HETATM    2  C   UNK N   1      31.571  43.262  56.541  0.00  0.00     0.190 A 
HETATM    3  C   UNK N   1      30.471  42.587  55.971  0.00  0.00     0.081 A 
HETATM    4  C   UNK N   1      29.200  42.791  56.553  0.00  0.00     0.095 A 
HETATM    5  O   UNK N   1      29.050  43.619  57.578  0.00  0.00    -0.309 OA
HETATM    6  C   UNK N   1      30.065  44.264  58.148  0.00  0.00     0.090 A 
HETATM    7  C   UNK N   1      31.367  44.091  57.647  0.00  0.00     0.094 A 
HETATM    8  C   UNK N   1      28.084  42.105  56.072  0.00  0.00     0.075 A 
HETATM    9  C   UNK N   1      28.207  41.215  54.993  0.00  0.00     0.077 A 
HETATM   10  C   UNK N   1      29.452  41.045  54.379  0.00  0.00     0.074 A 
HETATM   11  C   UNK N   1      30.590  41.714  54.861  0.00  0.00     0.085 A 
ENDROOT
BRANCH   9  12
HETATM   12  O   UNK N   1      27.150  40.488  54.545  0.00  0.00    -0.318 OA
BRANCH  12  13
HETATM   13  C   UNK N   1      25.946  41.044  54.130  0.00  0.00     0.298 C 
HETATM   14  O   UNK N   1      26.132  42.285  53.467  0.00  0.00    -0.348 OA
HETATM   15  C   UNK N   1      26.839  42.145  52.243  0.00  0.00     0.179 C 
HETATM   16  C   UNK N   1      26.092  41.216  51.249  0.00  0.00     0.180 C 
HETATM   17  C   UNK N   1      25.855  39.846  51.913  0.00  0.00     0.183 C 
HETATM   18  C   UNK N   1      25.148  40.056  53.261  0.00  0.00     0.205 C 
BRANCH  15  19
HETATM   19  C   UNK N   1      27.017  43.551  51.642  0.00  0.00     0.198 C 
BRANCH  19  20
HETATM   20  O   UNK N   1      26.799  44.550  52.604  0.00  0.00    -0.398 OA
HETATM   21  H   UNK N   1      26.694  45.408  52.114  0.00  0.00     0.209 HD
ENDBRANCH  19  20
ENDBRANCH  15  19
BRANCH  16  22
HETATM   22  O   UNK N   1      26.856  41.065  50.080  0.00  0.00    -0.390 OA
HETATM   23  H   UNK N   1      26.231  41.117  49.311  0.00  0.00     0.210 HD
ENDBRANCH  16  22
BRANCH  17  24
HETATM   24  O   UNK N   1      25.101  39.000  51.081  0.00  0.00    -0.390 OA
HETATM   25  H   UNK N   1      25.336  38.061  51.312  0.00  0.00     0.210 HD
ENDBRANCH  17  24
BRANCH  18  26
HETATM   26  O   UNK N   1      24.941  38.836  53.930  0.00  0.00    -0.388 OA
HETATM   27  H   UNK N   1      25.433  38.128  53.436  0.00  0.00     0.210 HD
ENDBRANCH  18  26
ENDBRANCH  12  13
ENDBRANCH   9  12
BRANCH  11  28
HETATM   28  O   UNK N   1      31.787  41.506  54.273  0.00  0.00    -0.360 OA
HETATM   29  H   UNK N   1      31.936  40.770  53.662  0.00  0.00     0.217 HD
ENDBRANCH  11  28
BRANCH   6  30
HETATM   30  C   UNK N   1      29.771  45.147  59.304  0.00  0.00     0.001 A 
HETATM   31  C   UNK N   1      28.581  45.894  59.307  0.00  0.00     0.053 A 
HETATM   32  C   UNK N   1      28.268  46.739  60.381  0.00  0.00     0.099 A 
HETATM   33  C   UNK N   1      29.129  46.824  61.483  0.00  0.00     0.101 A 
HETATM   34  C   UNK N   1      30.319  46.067  61.487  0.00  0.00     0.040 A 
HETATM   35  C   UNK N   1      30.642  45.248  60.403  0.00  0.00     0.017 A 
BRANCH  32  36
HETATM   36  O   UNK N   1      27.137  47.477  60.356  0.00  0.00    -0.358 OA
HETATM   37  H   UNK N   1      26.265  47.069  60.261  0.00  0.00     0.218 HD
ENDBRANCH  32  36
BRANCH  33  38
HETATM   38  O   UNK N   1      28.786  47.636  62.518  0.00  0.00    -0.353 OA
HETATM   39  C   UNK N   1      29.389  48.840  62.815  0.00  0.00     0.210 C 
ENDBRANCH  33  38
ENDBRANCH   6  30
TORSDOF 11
ENDMDL
MODEL 9
REMARK VINA RESULT:      -4.8      4.345      6.179
REMARK  11 active torsions:
REMARK  status: ('A' for Active; 'I' for Inactive)
REMARK    1  A    between atoms: C_6  and  C_8 
REMARK    2  A    between atoms: C_10  and  O_11 
REMARK    3  A    between atoms: C_13  and  O_14 
REMARK    4  A    between atoms: C_19  and  O_20 
REMARK    5  A    between atoms: O_20  and  C_21 
REMARK    6  A    between atoms: C_23  and  C_33 
REMARK    7  A    between atoms: C_24  and  O_25 
REMARK    8  A    between atoms: C_27  and  O_28 
REMARK    9  A    between atoms: C_30  and  O_31 
REMARK   10  A    between atoms: C_33  and  O_34 
REMARK   11  A    between atoms: C_37  and  O_38 
ROOT
HETATM    1  O   UNK N   1      30.661  44.455  63.140  0.00  0.00    -0.287 OA
HETATM    2  C   UNK N   1      30.522  44.451  61.930  0.00  0.00     0.190 A 
HETATM    3  C   UNK N   1      30.483  43.243  61.201  0.00  0.00     0.081 A 
HETATM    4  C   UNK N   1      30.315  43.324  59.802  0.00  0.00     0.095 A 
HETATM    5  O   UNK N   1      30.234  44.502  59.197  0.00  0.00    -0.309 OA
HETATM    6  C   UNK N   1      30.257  45.660  59.851  0.00  0.00     0.090 A 
HETATM    7  C   UNK N   1      30.391  45.664  61.250  0.00  0.00     0.094 A 
HETATM    8  C   UNK N   1      30.208  42.164  59.034  0.00  0.00     0.075 A 
HETATM    9  C   UNK N   1      30.282  40.899  59.641  0.00  0.00     0.077 A 
HETATM   10  C   UNK N   1      30.498  40.810  61.020  0.00  0.00     0.074 A 
HETATM   11  C   UNK N   1      30.590  41.969  61.811  0.00  0.00     0.085 A 
ENDROOT
BRANCH   9  12
HETATM   12  O   UNK N   1      30.119  39.755  58.927  0.00  0.00    -0.318 OA
BRANCH  12  13
HETATM   13  C   UNK N   1      28.892  39.301  58.459  0.00  0.00     0.298 C 
HETATM   14  O   UNK N   1      28.489  39.976  57.278  0.00  0.00    -0.348 OA
HETATM   15  C   UNK N   1      29.350  39.710  56.180  0.00  0.00     0.179 C 
HETATM   16  C   UNK N   1      29.394  38.197  55.836  0.00  0.00     0.180 C 
HETATM   17  C   UNK N   1      29.824  37.403  57.085  0.00  0.00     0.183 C 
HETATM   18  C   UNK N   1      28.905  37.775  58.259  0.00  0.00     0.205 C 
BRANCH  15  19
HETATM   19  C   UNK N   1      28.842  40.525  54.977  0.00  0.00     0.198 C 
BRANCH  19  20
HETATM   20  O   UNK N   1      29.906  41.004  54.197  0.00  0.00    -0.398 OA
HETATM   21  H   UNK N   1      30.351  41.722  54.719  0.00  0.00     0.209 HD
ENDBRANCH  19  20
ENDBRANCH  15  19
BRANCH  16  22
HETATM   22  O   UNK N   1      30.299  37.979  54.784  0.00  0.00    -0.390 OA
HETATM   23  H   UNK N   1      31.213  38.061  55.161  0.00  0.00     0.210 HD
ENDBRANCH  16  22
BRANCH  17  24
HETATM   24  O   UNK N   1      29.791  36.018  56.844  0.00  0.00    -0.390 OA
HETATM   25  H   UNK N   1      30.651  35.635  57.165  0.00  0.00     0.210 HD
ENDBRANCH  17  24
BRANCH  18  26
HETATM   26  O   UNK N   1      29.279  37.106  59.438  0.00  0.00    -0.388 OA
HETATM   27  H   UNK N   1      30.259  37.214  59.554  0.00  0.00     0.210 HD
ENDBRANCH  18  26
ENDBRANCH  12  13
ENDBRANCH   9  12
BRANCH  11  28
HETATM   28  O   UNK N   1      30.764  41.855  63.145  0.00  0.00    -0.360 OA
HETATM   29  H   UNK N   1      31.638  41.920  63.554  0.00  0.00     0.217 HD
ENDBRANCH  11  28
BRANCH   6  30
HETATM   30  C   UNK N   1      30.136  46.911  59.062  0.00  0.00     0.001 A 
HETATM   31  C   UNK N   1      29.637  48.066  59.685  0.00  0.00     0.053 A 
HETATM   32  C   UNK N   1      29.508  49.266  58.972  0.00  0.00     0.099 A 
HETATM   33  C   UNK N   1      29.907  49.334  57.630  0.00  0.00     0.101 A 
HETATM   34  C   UNK N   1      30.418  48.177  57.005  0.00  0.00     0.040 A 
HETATM   35  C   UNK N   1      30.519  46.977  57.710  0.00  0.00     0.017 A 
BRANCH  32  36
HETATM   36  O   UNK N   1      28.996  50.362  59.573  0.00  0.00    -0.358 OA
HETATM   37  H   UNK N   1      29.296  50.650  60.448  0.00  0.00     0.218 HD
ENDBRANCH  32  36
BRANCH  33  38
HETATM   38  O   UNK N   1      29.789  50.518  56.973  0.00  0.00    -0.353 OA
HETATM   39  C   UNK N   1      30.298  50.783  55.718  0.00  0.00     0.210 C 
ENDBRANCH  33  38
ENDBRANCH   6  30
TORSDOF 11
ENDMDL
