MODEL 1
REMARK VINA RESULT:      -5.7      0.000      0.000
REMARK  11 active torsions:
REMARK  status: ('A' for Active; 'I' for Inactive)
REMARK    1  A    between atoms: C_6  and  C_8 
REMARK    2  A    between atoms: C_10  and  O_11 
REMARK    3  A    between atoms: C_13  and  O_14 
REMARK    4  A    between atoms: C_19  and  O_20 
REMARK    5  A    between atoms: O_20  and  C_21 
REMARK    6  A    between atoms: C_23  and  C_33 
REMARK    7  A    between atoms: C_24  and  O_25 
REMARK    8  A    between atoms: C_27  and  O_28 
REMARK    9  A    between atoms: C_30  and  O_31 
REMARK   10  A    between atoms: C_33  and  O_34 
REMARK   11  A    between atoms: C_37  and  O_38 
ROOT
HETATM    1  O   UNK N   1      30.211  40.272  59.013  0.00  0.00    -0.287 OA
HETATM    2  C   UNK N   1      29.956  41.159  58.217  0.00  0.00     0.190 A 
HETATM    3  C   UNK N   1      30.126  42.525  58.556  0.00  0.00     0.081 A 
HETATM    4  C   UNK N   1      29.820  43.487  57.569  0.00  0.00     0.095 A 
HETATM    5  O   UNK N   1      29.402  43.116  56.366  0.00  0.00    -0.309 OA
HETATM    6  C   UNK N   1      29.216  41.847  56.018  0.00  0.00     0.090 A 
HETATM    7  C   UNK N   1      29.487  40.824  56.938  0.00  0.00     0.094 A 
HETATM    8  C   UNK N   1      29.944  44.849  57.845  0.00  0.00     0.075 A 
HETATM    9  C   UNK N   1      30.386  45.284  59.104  0.00  0.00     0.077 A 
HETATM   10  C   UNK N   1      30.714  44.349  60.074  0.00  0.00     0.074 A 
HETATM   11  C   UNK N   1      30.584  42.975  59.823  0.00  0.00     0.085 A 
ENDROOT
BRANCH   9  12
HETATM   12  O   UNK N   1      30.474  46.599  59.413  0.00  0.00    -0.318 OA
BRANCH  12  13
HETATM   13  C   UNK N   1      29.686  47.575  58.829  0.00  0.00     0.298 C 
HETATM   14  O   UNK N   1      30.456  48.287  57.883  0.00  0.00    -0.348 OA
HETATM   15  C   UNK N   1      29.659  49.235  57.187  0.00  0.00     0.179 C 
HETATM   16  C   UNK N   1      29.150  50.330  58.156  0.00  0.00     0.180 C 
HETATM   17  C   UNK N   1      28.385  49.680  59.325  0.00  0.00     0.183 C 
HETATM   18  C   UNK N   1      29.170  48.509  59.940  0.00  0.00     0.205 C 
BRANCH  15  19
HETATM   19  C   UNK N   1      30.535  49.861  56.087  0.00  0.00     0.198 C 
BRANCH  19  20
HETATM   20  O   UNK N   1      29.754  50.282  54.998  0.00  0.00    -0.398 OA
HETATM   21  H   UNK N   1      30.381  50.553  54.276  0.00  0.00     0.209 HD
ENDBRANCH  19  20
ENDBRANCH  15  19
BRANCH  16  22
HETATM   22  O   UNK N   1      28.314  51.224  57.464  0.00  0.00    -0.390 OA
HETATM   23  H   UNK N   1      27.889  51.815  58.139  0.00  0.00     0.210 HD
ENDBRANCH  16  22
BRANCH  17  24
HETATM   24  O   UNK N   1      28.100  50.639  60.314  0.00  0.00    -0.390 OA
HETATM   25  H   UNK N   1      28.915  51.203  60.416  0.00  0.00     0.210 HD
ENDBRANCH  17  24
BRANCH  18  26
HETATM   26  O   UNK N   1      28.314  47.815  60.814  0.00  0.00    -0.388 OA
HETATM   27  H   UNK N   1      27.492  48.358  60.926  0.00  0.00     0.210 HD
ENDBRANCH  18  26
ENDBRANCH  12  13
ENDBRANCH   9  12
BRANCH  11  28
HETATM   28  O   UNK N   1      30.893  42.113  60.806  0.00  0.00    -0.360 OA
HETATM   29  H   UNK N   1      30.570  42.277  61.706  0.00  0.00     0.217 HD
ENDBRANCH  11  28
BRANCH   6  30
HETATM   30  C   UNK N   1      28.727  41.565  54.650  0.00  0.00     0.001 A 
HETATM   31  C   UNK N   1      29.392  42.144  53.564  0.00  0.00     0.053 A 
HETATM   32  C   UNK N   1      28.963  41.912  52.254  0.00  0.00     0.099 A 
HETATM   33  C   UNK N   1      27.840  41.111  52.014  0.00  0.00     0.101 A 
HETATM   34  C   UNK N   1      27.163  40.538  53.110  0.00  0.00     0.040 A 
HETATM   35  C   UNK N   1      27.608  40.754  54.410  0.00  0.00     0.017 A 
BRANCH  32  36
HETATM   36  O   UNK N   1      29.641  42.462  51.233  0.00  0.00    -0.358 OA
HETATM   37  H   UNK N   1      30.206  43.232  51.389  0.00  0.00     0.218 HD
ENDBRANCH  32  36
BRANCH  33  38
HETATM   38  O   UNK N   1      27.428  40.904  50.736  0.00  0.00    -0.353 OA
HETATM   39  C   UNK N   1      26.247  41.416  50.240  0.00  0.00     0.210 C 
ENDBRANCH  33  38
ENDBRANCH   6  30
TORSDOF 11
ENDMDL
MODEL 2
REMARK VINA RESULT:      -5.5      4.543      8.675
REMARK  11 active torsions:
REMARK  status: ('A' for Active; 'I' for Inactive)
REMARK    1  A    between atoms: C_6  and  C_8 
REMARK    2  A    between atoms: C_10  and  O_11 
REMARK    3  A    between atoms: C_13  and  O_14 
REMARK    4  A    between atoms: C_19  and  O_20 
REMARK    5  A    between atoms: O_20  and  C_21 
REMARK    6  A    between atoms: C_23  and  C_33 
REMARK    7  A    between atoms: C_24  and  O_25 
REMARK    8  A    between atoms: C_27  and  O_28 
REMARK    9  A    between atoms: C_30  and  O_31 
REMARK   10  A    between atoms: C_33  and  O_34 
REMARK   11  A    between atoms: C_37  and  O_38 
ROOT
HETATM    1  O   UNK N   1      28.857  39.177  59.009  0.00  0.00    -0.287 OA
HETATM    2  C   UNK N   1      29.584  40.102  58.691  0.00  0.00     0.190 A 
HETATM    3  C   UNK N   1      29.604  40.602  57.364  0.00  0.00     0.081 A 
HETATM    4  C   UNK N   1      30.465  41.685  57.085  0.00  0.00     0.095 A 
HETATM    5  O   UNK N   1      31.216  42.218  58.040  0.00  0.00    -0.309 OA
HETATM    6  C   UNK N   1      31.236  41.767  59.290  0.00  0.00     0.090 A 
HETATM    7  C   UNK N   1      30.417  40.688  59.656  0.00  0.00     0.094 A 
HETATM    8  C   UNK N   1      30.548  42.209  55.795  0.00  0.00     0.075 A 
HETATM    9  C   UNK N   1      29.770  41.677  54.757  0.00  0.00     0.077 A 
HETATM   10  C   UNK N   1      28.901  40.629  55.023  0.00  0.00     0.074 A 
HETATM   11  C   UNK N   1      28.810  40.077  56.309  0.00  0.00     0.085 A 
ENDROOT
BRANCH   9  12
HETATM   12  O   UNK N   1      29.863  42.137  53.487  0.00  0.00    -0.318 OA
BRANCH  12  13
HETATM   13  C   UNK N   1      28.795  42.673  52.790  0.00  0.00     0.298 C 
HETATM   14  O   UNK N   1      27.679  42.764  53.653  0.00  0.00    -0.348 OA
HETATM   15  C   UNK N   1      26.586  43.401  53.006  0.00  0.00     0.179 C 
HETATM   16  C   UNK N   1      26.078  42.538  51.826  0.00  0.00     0.180 C 
HETATM   17  C   UNK N   1      27.235  42.248  50.851  0.00  0.00     0.183 C 
HETATM   18  C   UNK N   1      28.493  41.757  51.589  0.00  0.00     0.205 C 
BRANCH  15  19
HETATM   19  C   UNK N   1      25.471  43.588  54.051  0.00  0.00     0.198 C 
BRANCH  19  20
HETATM   20  O   UNK N   1      25.863  44.491  55.052  0.00  0.00    -0.398 OA
HETATM   21  H   UNK N   1      26.268  43.957  55.786  0.00  0.00     0.209 HD
ENDBRANCH  19  20
ENDBRANCH  15  19
BRANCH  16  22
HETATM   22  O   UNK N   1      25.038  43.211  51.160  0.00  0.00    -0.390 OA
HETATM   23  H   UNK N   1      24.183  42.801  51.453  0.00  0.00     0.210 HD
ENDBRANCH  16  22
BRANCH  17  24
HETATM   24  O   UNK N   1      26.840  41.298  49.893  0.00  0.00    -0.390 OA
HETATM   25  H   UNK N   1      26.579  41.802  49.073  0.00  0.00     0.210 HD
ENDBRANCH  17  24
BRANCH  18  26
HETATM   26  O   UNK N   1      29.566  41.760  50.681  0.00  0.00    -0.388 OA
HETATM   27  H   UNK N   1      30.021  40.882  50.748  0.00  0.00     0.210 HD
ENDBRANCH  18  26
ENDBRANCH  12  13
ENDBRANCH   9  12
BRANCH  11  28
HETATM   28  O   UNK N   1      27.969  39.048  56.506  0.00  0.00    -0.360 OA
HETATM   29  H   UNK N   1      27.607  38.573  55.743  0.00  0.00     0.217 HD
ENDBRANCH  11  28
BRANCH   6  30
HETATM   30  C   UNK N   1      32.132  42.438  60.258  0.00  0.00     0.001 A 
HETATM   31  C   UNK N   1      33.448  42.718  59.876  0.00  0.00     0.053 A 
HETATM   32  C   UNK N   1      34.332  43.344  60.758  0.00  0.00     0.099 A 
HETATM   33  C   UNK N   1      33.915  43.680  62.051  0.00  0.00     0.101 A 
HETATM   34  C   UNK N   1      32.592  43.387  62.440  0.00  0.00     0.040 A 
HETATM   35  C   UNK N   1      31.710  42.783  61.551  0.00  0.00     0.017 A 
BRANCH  32  36
HETATM   36  O   UNK N   1      35.582  43.623  60.350  0.00  0.00    -0.358 OA
HETATM   37  H   UNK N   1      36.301  43.006  60.547  0.00  0.00     0.218 HD
ENDBRANCH  32  36
BRANCH  33  38
HETATM   38  O   UNK N   1      34.790  44.278  62.902  0.00  0.00    -0.353 OA
HETATM   39  C   UNK N   1      34.886  45.647  63.033  0.00  0.00     0.210 C 
ENDBRANCH  33  38
ENDBRANCH   6  30
TORSDOF 11
ENDMDL
MODEL 3
REMARK VINA RESULT:      -5.5     20.347     22.882
REMARK  11 active torsions:
REMARK  status: ('A' for Active; 'I' for Inactive)
REMARK    1  A    between atoms: C_6  and  C_8 
REMARK    2  A    between atoms: C_10  and  O_11 
REMARK    3  A    between atoms: C_13  and  O_14 
REMARK    4  A    between atoms: C_19  and  O_20 
REMARK    5  A    between atoms: O_20  and  C_21 
REMARK    6  A    between atoms: C_23  and  C_33 
REMARK    7  A    between atoms: C_24  and  O_25 
REMARK    8  A    between atoms: C_27  and  O_28 
REMARK    9  A    between atoms: C_30  and  O_31 
REMARK   10  A    between atoms: C_33  and  O_34 
REMARK   11  A    between atoms: C_37  and  O_38 
ROOT
HETATM    1  O   UNK N   1      51.814  47.047  57.755  0.00  0.00    -0.287 OA
HETATM    2  C   UNK N   1      51.398  48.102  58.201  0.00  0.00     0.190 A 
HETATM    3  C   UNK N   1      51.868  49.347  57.711  0.00  0.00     0.081 A 
HETATM    4  C   UNK N   1      51.322  50.520  58.273  0.00  0.00     0.095 A 
HETATM    5  O   UNK N   1      50.393  50.451  59.217  0.00  0.00    -0.309 OA
HETATM    6  C   UNK N   1      49.939  49.304  59.712  0.00  0.00     0.090 A 
HETATM    7  C   UNK N   1      50.432  48.087  59.218  0.00  0.00     0.094 A 
HETATM    8  C   UNK N   1      51.757  51.777  57.851  0.00  0.00     0.075 A 
HETATM    9  C   UNK N   1      52.736  51.895  56.853  0.00  0.00     0.077 A 
HETATM   10  C   UNK N   1      53.263  50.750  56.274  0.00  0.00     0.074 A 
HETATM   11  C   UNK N   1      52.850  49.476  56.691  0.00  0.00     0.085 A 
ENDROOT
BRANCH   9  12
HETATM   12  O   UNK N   1      53.208  53.100  56.455  0.00  0.00    -0.318 OA
BRANCH  12  13
HETATM   13  C   UNK N   1      52.442  54.033  55.780  0.00  0.00     0.298 C 
HETATM   14  O   UNK N   1      51.328  54.380  56.576  0.00  0.00    -0.348 OA
HETATM   15  C   UNK N   1      50.565  55.411  55.964  0.00  0.00     0.179 C 
HETATM   16  C   UNK N   1      49.938  54.907  54.641  0.00  0.00     0.180 C 
HETATM   17  C   UNK N   1      51.042  54.375  53.708  0.00  0.00     0.183 C 
HETATM   18  C   UNK N   1      51.996  53.416  54.441  0.00  0.00     0.205 C 
BRANCH  15  19
HETATM   19  C   UNK N   1      49.462  55.825  56.955  0.00  0.00     0.198 C 
BRANCH  19  20
HETATM   20  O   UNK N   1      48.255  55.164  56.672  0.00  0.00    -0.398 OA
HETATM   21  H   UNK N   1      47.688  55.797  56.158  0.00  0.00     0.209 HD
ENDBRANCH  19  20
ENDBRANCH  15  19
BRANCH  16  22
HETATM   22  O   UNK N   1      49.239  55.957  54.018  0.00  0.00    -0.390 OA
HETATM   23  H   UNK N   1      49.502  56.799  54.473  0.00  0.00     0.210 HD
ENDBRANCH  16  22
BRANCH  17  24
HETATM   24  O   UNK N   1      50.471  53.727  52.598  0.00  0.00    -0.390 OA
HETATM   25  H   UNK N   1      50.608  52.749  52.729  0.00  0.00     0.210 HD
ENDBRANCH  17  24
BRANCH  18  26
HETATM   26  O   UNK N   1      53.105  53.177  53.611  0.00  0.00    -0.388 OA
HETATM   27  H   UNK N   1      53.560  52.361  53.942  0.00  0.00     0.210 HD
ENDBRANCH  18  26
ENDBRANCH  12  13
ENDBRANCH   9  12
BRANCH  11  28
HETATM   28  O   UNK N   1      53.410  48.400  56.114  0.00  0.00    -0.360 OA
HETATM   29  H   UNK N   1      54.358  48.406  55.908  0.00  0.00     0.217 HD
ENDBRANCH  11  28
BRANCH   6  30
HETATM   30  C   UNK N   1      48.914  49.363  60.778  0.00  0.00     0.001 A 
HETATM   31  C   UNK N   1      47.582  49.090  60.448  0.00  0.00     0.053 A 
HETATM   32  C   UNK N   1      46.579  49.139  61.420  0.00  0.00     0.099 A 
HETATM   33  C   UNK N   1      46.894  49.489  62.738  0.00  0.00     0.101 A 
HETATM   34  C   UNK N   1      48.235  49.776  63.067  0.00  0.00     0.040 A 
HETATM   35  C   UNK N   1      49.233  49.704  62.101  0.00  0.00     0.017 A 
BRANCH  32  36
HETATM   36  O   UNK N   1      45.314  48.845  61.075  0.00  0.00    -0.358 OA
HETATM   37  H   UNK N   1      44.843  49.410  60.447  0.00  0.00     0.218 HD
ENDBRANCH  32  36
BRANCH  33  38
HETATM   38  O   UNK N   1      45.906  49.545  63.669  0.00  0.00    -0.353 OA
HETATM   39  C   UNK N   1      45.863  48.707  64.763  0.00  0.00     0.210 C 
ENDBRANCH  33  38
ENDBRANCH   6  30
TORSDOF 11
ENDMDL
MODEL 4
REMARK VINA RESULT:      -5.5      1.658      8.441
REMARK  11 active torsions:
REMARK  status: ('A' for Active; 'I' for Inactive)
REMARK    1  A    between atoms: C_6  and  C_8 
REMARK    2  A    between atoms: C_10  and  O_11 
REMARK    3  A    between atoms: C_13  and  O_14 
REMARK    4  A    between atoms: C_19  and  O_20 
REMARK    5  A    between atoms: O_20  and  C_21 
REMARK    6  A    between atoms: C_23  and  C_33 
REMARK    7  A    between atoms: C_24  and  O_25 
REMARK    8  A    between atoms: C_27  and  O_28 
REMARK    9  A    between atoms: C_30  and  O_31 
REMARK   10  A    between atoms: C_33  and  O_34 
REMARK   11  A    between atoms: C_37  and  O_38 
ROOT
HETATM    1  O   UNK N   1      31.301  43.588  60.662  0.00  0.00    -0.287 OA
HETATM    2  C   UNK N   1      30.669  44.164  59.794  0.00  0.00     0.190 A 
HETATM    3  C   UNK N   1      30.114  43.460  58.696  0.00  0.00     0.081 A 
HETATM    4  C   UNK N   1      29.384  44.203  57.743  0.00  0.00     0.095 A 
HETATM    5  O   UNK N   1      29.217  45.511  57.886  0.00  0.00    -0.309 OA
HETATM    6  C   UNK N   1      29.735  46.207  58.893  0.00  0.00     0.090 A 
HETATM    7  C   UNK N   1      30.483  45.552  59.882  0.00  0.00     0.094 A 
HETATM    8  C   UNK N   1      28.831  43.574  56.628  0.00  0.00     0.075 A 
HETATM    9  C   UNK N   1      28.981  42.192  56.440  0.00  0.00     0.077 A 
HETATM   10  C   UNK N   1      29.675  41.446  57.381  0.00  0.00     0.074 A 
HETATM   11  C   UNK N   1      30.251  42.058  58.504  0.00  0.00     0.085 A 
ENDROOT
BRANCH   9  12
HETATM   12  O   UNK N   1      28.493  41.563  55.345  0.00  0.00    -0.318 OA
BRANCH  12  13
HETATM   13  C   UNK N   1      28.208  42.212  54.157  0.00  0.00     0.298 C 
HETATM   14  O   UNK N   1      26.876  41.926  53.783  0.00  0.00    -0.348 OA
HETATM   15  C   UNK N   1      26.507  42.652  52.618  0.00  0.00     0.179 C 
HETATM   16  C   UNK N   1      27.345  42.187  51.402  0.00  0.00     0.180 C 
HETATM   17  C   UNK N   1      28.847  42.326  51.717  0.00  0.00     0.183 C 
HETATM   18  C   UNK N   1      29.201  41.721  53.087  0.00  0.00     0.205 C 
BRANCH  15  19
HETATM   19  C   UNK N   1      25.010  42.396  52.364  0.00  0.00     0.198 C 
BRANCH  19  20
HETATM   20  O   UNK N   1      24.471  43.364  51.502  0.00  0.00    -0.398 OA
HETATM   21  H   UNK N   1      24.456  42.969  50.590  0.00  0.00     0.209 HD
ENDBRANCH  19  20
ENDBRANCH  15  19
BRANCH  16  22
HETATM   22  O   UNK N   1      27.011  42.957  50.274  0.00  0.00    -0.390 OA
HETATM   23  H   UNK N   1      27.854  43.341  49.917  0.00  0.00     0.210 HD
ENDBRANCH  16  22
BRANCH  17  24
HETATM   24  O   UNK N   1      29.615  41.716  50.710  0.00  0.00    -0.390 OA
HETATM   25  H   UNK N   1      29.063  41.718  49.881  0.00  0.00     0.210 HD
ENDBRANCH  17  24
BRANCH  18  26
HETATM   26  O   UNK N   1      30.513  42.107  53.414  0.00  0.00    -0.388 OA
HETATM   27  H   UNK N   1      31.021  41.288  53.643  0.00  0.00     0.210 HD
ENDBRANCH  18  26
ENDBRANCH  12  13
ENDBRANCH   9  12
BRANCH  11  28
HETATM   28  O   UNK N   1      30.932  41.293  59.372  0.00  0.00    -0.360 OA
HETATM   29  H   UNK N   1      31.011  40.340  59.211  0.00  0.00     0.217 HD
ENDBRANCH  11  28
BRANCH   6  30
HETATM   30  C   UNK N   1      29.491  47.666  58.928  0.00  0.00     0.001 A 
HETATM   31  C   UNK N   1      30.025  48.463  57.909  0.00  0.00     0.053 A 
HETATM   32  C   UNK N   1      29.826  49.846  57.904  0.00  0.00     0.099 A 
HETATM   33  C   UNK N   1      29.106  50.457  58.937  0.00  0.00     0.101 A 
HETATM   34  C   UNK N   1      28.578  49.655  59.970  0.00  0.00     0.040 A 
HETATM   35  C   UNK N   1      28.760  48.276  59.959  0.00  0.00     0.017 A 
BRANCH  32  36
HETATM   36  O   UNK N   1      30.330  50.579  56.897  0.00  0.00    -0.358 OA
HETATM   37  H   UNK N   1      31.101  50.259  56.408  0.00  0.00     0.218 HD
ENDBRANCH  32  36
BRANCH  33  38
HETATM   38  O   UNK N   1      28.931  51.805  58.924  0.00  0.00    -0.353 OA
HETATM   39  C   UNK N   1      28.028  52.448  59.744  0.00  0.00     0.210 C 
ENDBRANCH  33  38
ENDBRANCH   6  30
TORSDOF 11
ENDMDL
MODEL 5
REMARK VINA RESULT:      -5.4      1.782      1.996
REMARK  11 active torsions:
REMARK  status: ('A' for Active; 'I' for Inactive)
REMARK    1  A    between atoms: C_6  and  C_8 
REMARK    2  A    between atoms: C_10  and  O_11 
REMARK    3  A    between atoms: C_13  and  O_14 
REMARK    4  A    between atoms: C_19  and  O_20 
REMARK    5  A    between atoms: O_20  and  C_21 
REMARK    6  A    between atoms: C_23  and  C_33 
REMARK    7  A    between atoms: C_24  and  O_25 
REMARK    8  A    between atoms: C_27  and  O_28 
REMARK    9  A    between atoms: C_30  and  O_31 
REMARK   10  A    between atoms: C_33  and  O_34 
REMARK   11  A    between atoms: C_37  and  O_38 
ROOT
HETATM    1  O   UNK N   1      32.625  42.417  55.827  0.00  0.00    -0.287 OA
HETATM    2  C   UNK N   1      31.420  42.590  55.892  0.00  0.00     0.190 A 
HETATM    3  C   UNK N   1      30.847  43.421  56.888  0.00  0.00     0.081 A 
HETATM    4  C   UNK N   1      29.445  43.579  56.882  0.00  0.00     0.095 A 
HETATM    5  O   UNK N   1      28.699  42.977  55.965  0.00  0.00    -0.309 OA
HETATM    6  C   UNK N   1      29.197  42.179  55.027  0.00  0.00     0.090 A 
HETATM    7  C   UNK N   1      30.581  41.958  54.963  0.00  0.00     0.094 A 
HETATM    8  C   UNK N   1      28.817  44.365  57.848  0.00  0.00     0.075 A 
HETATM    9  C   UNK N   1      29.569  45.022  58.834  0.00  0.00     0.077 A 
HETATM   10  C   UNK N   1      30.950  44.896  58.836  0.00  0.00     0.074 A 
HETATM   11  C   UNK N   1      31.603  44.100  57.883  0.00  0.00     0.085 A 
ENDROOT
BRANCH   9  12
HETATM   12  O   UNK N   1      28.982  45.755  59.809  0.00  0.00    -0.318 OA
BRANCH  12  13
HETATM   13  C   UNK N   1      28.726  47.110  59.694  0.00  0.00     0.298 C 
HETATM   14  O   UNK N   1      29.273  47.582  58.480  0.00  0.00    -0.348 OA
HETATM   15  C   UNK N   1      28.948  48.950  58.273  0.00  0.00     0.179 C 
HETATM   16  C   UNK N   1      29.615  49.835  59.354  0.00  0.00     0.180 C 
HETATM   17  C   UNK N   1      29.201  49.350  60.757  0.00  0.00     0.183 C 
HETATM   18  C   UNK N   1      29.357  47.826  60.902  0.00  0.00     0.205 C 
BRANCH  15  19
HETATM   19  C   UNK N   1      29.456  49.343  56.874  0.00  0.00     0.198 C 
BRANCH  19  20
HETATM   20  O   UNK N   1      30.643  50.088  56.958  0.00  0.00    -0.398 OA
HETATM   21  H   UNK N   1      30.493  50.934  56.459  0.00  0.00     0.209 HD
ENDBRANCH  19  20
ENDBRANCH  15  19
BRANCH  16  22
HETATM   22  O   UNK N   1      29.232  51.176  59.171  0.00  0.00    -0.390 OA
HETATM   23  H   UNK N   1      29.813  51.556  58.462  0.00  0.00     0.210 HD
ENDBRANCH  16  22
BRANCH  17  24
HETATM   24  O   UNK N   1      29.958  50.006  61.743  0.00  0.00    -0.390 OA
HETATM   25  H   UNK N   1      30.551  49.322  62.158  0.00  0.00     0.210 HD
ENDBRANCH  17  24
BRANCH  18  26
HETATM   26  O   UNK N   1      28.730  47.430  62.097  0.00  0.00    -0.388 OA
HETATM   27  H   UNK N   1      28.624  48.236  62.664  0.00  0.00     0.210 HD
ENDBRANCH  18  26
ENDBRANCH  12  13
ENDBRANCH   9  12
BRANCH  11  28
HETATM   28  O   UNK N   1      32.940  43.994  57.945  0.00  0.00    -0.360 OA
HETATM   29  H   UNK N   1      33.492  44.759  57.721  0.00  0.00     0.217 HD
ENDBRANCH  11  28
BRANCH   6  30
HETATM   30  C   UNK N   1      28.255  41.552  54.074  0.00  0.00     0.001 A 
HETATM   31  C   UNK N   1      28.520  41.644  52.703  0.00  0.00     0.053 A 
HETATM   32  C   UNK N   1      27.656  41.073  51.766  0.00  0.00     0.099 A 
HETATM   33  C   UNK N   1      26.493  40.418  52.190  0.00  0.00     0.101 A 
HETATM   34  C   UNK N   1      26.220  40.336  53.570  0.00  0.00     0.040 A 
HETATM   35  C   UNK N   1      27.095  40.887  54.500  0.00  0.00     0.017 A 
BRANCH  32  36
HETATM   36  O   UNK N   1      27.955  41.157  50.459  0.00  0.00    -0.358 OA
HETATM   37  H   UNK N   1      27.365  40.756  49.805  0.00  0.00     0.218 HD
ENDBRANCH  32  36
BRANCH  33  38
HETATM   38  O   UNK N   1      25.656  39.878  51.266  0.00  0.00    -0.353 OA
HETATM   39  C   UNK N   1      24.759  38.876  51.567  0.00  0.00     0.210 C 
ENDBRANCH  33  38
ENDBRANCH   6  30
TORSDOF 11
ENDMDL
MODEL 6
REMARK VINA RESULT:      -5.2      4.980      7.406
REMARK  11 active torsions:
REMARK  status: ('A' for Active; 'I' for Inactive)
REMARK    1  A    between atoms: C_6  and  C_8 
REMARK    2  A    between atoms: C_10  and  O_11 
REMARK    3  A    between atoms: C_13  and  O_14 
REMARK    4  A    between atoms: C_19  and  O_20 
REMARK    5  A    between atoms: O_20  and  C_21 
REMARK    6  A    between atoms: C_23  and  C_33 
REMARK    7  A    between atoms: C_24  and  O_25 
REMARK    8  A    between atoms: C_27  and  O_28 
REMARK    9  A    between atoms: C_30  and  O_31 
REMARK   10  A    between atoms: C_33  and  O_34 
REMARK   11  A    between atoms: C_37  and  O_38 
ROOT
HETATM    1  O   UNK N   1      29.367  47.264  61.225  0.00  0.00    -0.287 OA
HETATM    2  C   UNK N   1      30.074  46.303  60.979  0.00  0.00     0.190 A 
HETATM    3  C   UNK N   1      31.086  45.882  61.879  0.00  0.00     0.081 A 
HETATM    4  C   UNK N   1      31.850  44.750  61.523  0.00  0.00     0.095 A 
HETATM    5  O   UNK N   1      31.613  44.102  60.390  0.00  0.00    -0.309 OA
HETATM    6  C   UNK N   1      30.685  44.476  59.515  0.00  0.00     0.090 A 
HETATM    7  C   UNK N   1      29.884  45.595  59.783  0.00  0.00     0.094 A 
HETATM    8  C   UNK N   1      32.875  44.297  62.353  0.00  0.00     0.075 A 
HETATM    9  C   UNK N   1      33.156  44.952  63.562  0.00  0.00     0.077 A 
HETATM   10  C   UNK N   1      32.396  46.050  63.937  0.00  0.00     0.074 A 
HETATM   11  C   UNK N   1      31.369  46.532  63.111  0.00  0.00     0.085 A 
ENDROOT
BRANCH   9  12
HETATM   12  O   UNK N   1      34.172  44.560  64.366  0.00  0.00    -0.318 OA
BRANCH  12  13
HETATM   13  C   UNK N   1      35.360  45.259  64.488  0.00  0.00     0.298 C 
HETATM   14  O   UNK N   1      35.460  46.189  63.430  0.00  0.00    -0.348 OA
HETATM   15  C   UNK N   1      36.620  46.999  63.571  0.00  0.00     0.179 C 
HETATM   16  C   UNK N   1      37.900  46.139  63.435  0.00  0.00     0.180 C 
HETATM   17  C   UNK N   1      37.870  44.990  64.461  0.00  0.00     0.183 C 
HETATM   18  C   UNK N   1      36.522  44.248  64.449  0.00  0.00     0.205 C 
BRANCH  15  19
HETATM   19  C   UNK N   1      36.577  48.070  62.466  0.00  0.00     0.198 C 
BRANCH  19  20
HETATM   20  O   UNK N   1      37.425  47.731  61.400  0.00  0.00    -0.398 OA
HETATM   21  H   UNK N   1      37.269  46.771  61.196  0.00  0.00     0.209 HD
ENDBRANCH  19  20
ENDBRANCH  15  19
BRANCH  16  22
HETATM   22  O   UNK N   1      39.035  46.943  63.639  0.00  0.00    -0.390 OA
HETATM   23  H   UNK N   1      39.636  46.811  62.861  0.00  0.00     0.210 HD
ENDBRANCH  16  22
BRANCH  17  24
HETATM   24  O   UNK N   1      38.917  44.085  64.211  0.00  0.00    -0.390 OA
HETATM   25  H   UNK N   1      38.687  43.597  63.373  0.00  0.00     0.210 HD
ENDBRANCH  17  24
BRANCH  18  26
HETATM   26  O   UNK N   1      36.477  43.397  65.566  0.00  0.00    -0.388 OA
HETATM   27  H   UNK N   1      36.375  42.468  65.235  0.00  0.00     0.210 HD
ENDBRANCH  18  26
ENDBRANCH  12  13
ENDBRANCH   9  12
BRANCH  11  28
HETATM   28  O   UNK N   1      30.680  47.613  63.511  0.00  0.00    -0.360 OA
HETATM   29  H   UNK N   1      30.774  48.447  63.025  0.00  0.00     0.217 HD
ENDBRANCH  11  28
BRANCH   6  30
HETATM   30  C   UNK N   1      30.534  43.678  58.278  0.00  0.00     0.001 A 
HETATM   31  C   UNK N   1      31.628  43.557  57.415  0.00  0.00     0.053 A 
HETATM   32  C   UNK N   1      31.530  42.818  56.233  0.00  0.00     0.099 A 
HETATM   33  C   UNK N   1      30.320  42.207  55.884  0.00  0.00     0.101 A 
HETATM   34  C   UNK N   1      29.214  42.339  56.748  0.00  0.00     0.040 A 
HETATM   35  C   UNK N   1      29.323  43.056  57.935  0.00  0.00     0.017 A 
BRANCH  32  36
HETATM   36  O   UNK N   1      32.608  42.700  55.439  0.00  0.00    -0.358 OA
HETATM   37  H   UNK N   1      33.461  43.051  55.732  0.00  0.00     0.218 HD
ENDBRANCH  32  36
BRANCH  33  38
HETATM   38  O   UNK N   1      30.236  41.502  54.725  0.00  0.00    -0.353 OA
HETATM   39  C   UNK N   1      29.123  41.530  53.913  0.00  0.00     0.210 C 
ENDBRANCH  33  38
ENDBRANCH   6  30
TORSDOF 11
ENDMDL
MODEL 7
REMARK VINA RESULT:      -5.0     17.374     19.318
REMARK  11 active torsions:
REMARK  status: ('A' for Active; 'I' for Inactive)
REMARK    1  A    between atoms: C_6  and  C_8 
REMARK    2  A    between atoms: C_10  and  O_11 
REMARK    3  A    between atoms: C_13  and  O_14 
REMARK    4  A    between atoms: C_19  and  O_20 
REMARK    5  A    between atoms: O_20  and  C_21 
REMARK    6  A    between atoms: C_23  and  C_33 
REMARK    7  A    between atoms: C_24  and  O_25 
REMARK    8  A    between atoms: C_27  and  O_28 
REMARK    9  A    between atoms: C_30  and  O_31 
REMARK   10  A    between atoms: C_33  and  O_34 
REMARK   11  A    between atoms: C_37  and  O_38 
ROOT
HETATM    1  O   UNK N   1      42.326  52.176  64.019  0.00  0.00    -0.287 OA
HETATM    2  C   UNK N   1      43.306  52.401  63.331  0.00  0.00     0.190 A 
HETATM    3  C   UNK N   1      43.793  53.721  63.151  0.00  0.00     0.081 A 
HETATM    4  C   UNK N   1      44.942  53.892  62.349  0.00  0.00     0.095 A 
HETATM    5  O   UNK N   1      45.545  52.847  61.798  0.00  0.00    -0.309 OA
HETATM    6  C   UNK N   1      45.109  51.598  61.931  0.00  0.00     0.090 A 
HETATM    7  C   UNK N   1      43.969  51.336  62.704  0.00  0.00     0.094 A 
HETATM    8  C   UNK N   1      45.459  55.166  62.115  0.00  0.00     0.075 A 
HETATM    9  C   UNK N   1      44.853  56.297  62.681  0.00  0.00     0.077 A 
HETATM   10  C   UNK N   1      43.739  56.142  63.492  0.00  0.00     0.074 A 
HETATM   11  C   UNK N   1      43.193  54.872  63.731  0.00  0.00     0.085 A 
ENDROOT
BRANCH   9  12
HETATM   12  O   UNK N   1      45.308  57.548  62.435  0.00  0.00    -0.318 OA
BRANCH  12  13
HETATM   13  C   UNK N   1      44.838  58.342  61.404  0.00  0.00     0.298 C 
HETATM   14  O   UNK N   1      43.585  57.849  60.977  0.00  0.00    -0.348 OA
HETATM   15  C   UNK N   1      43.018  58.693  59.984  0.00  0.00     0.179 C 
HETATM   16  C   UNK N   1      43.884  58.676  58.700  0.00  0.00     0.180 C 
HETATM   17  C   UNK N   1      45.332  59.078  59.040  0.00  0.00     0.183 C 
HETATM   18  C   UNK N   1      45.867  58.306  60.258  0.00  0.00     0.205 C 
BRANCH  15  19
HETATM   19  C   UNK N   1      41.602  58.169  59.680  0.00  0.00     0.198 C 
BRANCH  19  20
HETATM   20  O   UNK N   1      41.594  57.383  58.516  0.00  0.00    -0.398 OA
HETATM   21  H   UNK N   1      41.282  56.476  58.777  0.00  0.00     0.209 HD
ENDBRANCH  19  20
ENDBRANCH  15  19
BRANCH  16  22
HETATM   22  O   UNK N   1      43.343  59.563  57.752  0.00  0.00    -0.390 OA
HETATM   23  H   UNK N   1      44.075  60.164  57.456  0.00  0.00     0.210 HD
ENDBRANCH  16  22
BRANCH  17  24
HETATM   24  O   UNK N   1      46.170  58.866  57.931  0.00  0.00    -0.390 OA
HETATM   25  H   UNK N   1      46.938  58.317  58.247  0.00  0.00     0.210 HD
ENDBRANCH  17  24
BRANCH  18  26
HETATM   26  O   UNK N   1      47.077  58.899  60.660  0.00  0.00    -0.388 OA
HETATM   27  H   UNK N   1      47.791  58.217  60.575  0.00  0.00     0.210 HD
ENDBRANCH  18  26
ENDBRANCH  12  13
ENDBRANCH   9  12
BRANCH  11  28
HETATM   28  O   UNK N   1      42.099  54.780  64.505  0.00  0.00    -0.360 OA
HETATM   29  H   UNK N   1      42.122  55.129  65.409  0.00  0.00     0.217 HD
ENDBRANCH  11  28
BRANCH   6  30
HETATM   30  C   UNK N   1      45.862  50.522  61.249  0.00  0.00     0.001 A 
HETATM   31  C   UNK N   1      47.176  50.773  60.840  0.00  0.00     0.053 A 
HETATM   32  C   UNK N   1      47.924  49.790  60.187  0.00  0.00     0.099 A 
HETATM   33  C   UNK N   1      47.354  48.541  59.912  0.00  0.00     0.101 A 
HETATM   34  C   UNK N   1      46.026  48.292  60.313  0.00  0.00     0.040 A 
HETATM   35  C   UNK N   1      45.293  49.267  60.982  0.00  0.00     0.017 A 
BRANCH  32  36
HETATM   36  O   UNK N   1      49.192  50.055  59.832  0.00  0.00    -0.358 OA
HETATM   37  H   UNK N   1      49.817  50.386  60.492  0.00  0.00     0.218 HD
ENDBRANCH  32  36
BRANCH  33  38
HETATM   38  O   UNK N   1      48.089  47.599  59.266  0.00  0.00    -0.353 OA
HETATM   39  C   UNK N   1      47.568  46.795  58.274  0.00  0.00     0.210 C 
ENDBRANCH  33  38
ENDBRANCH   6  30
TORSDOF 11
ENDMDL
MODEL 8
REMARK VINA RESULT:      -4.9      4.133      5.624
REMARK  11 active torsions:
REMARK  status: ('A' for Active; 'I' for Inactive)
REMARK    1  A    between atoms: C_6  and  C_8 
REMARK    2  A    between atoms: C_10  and  O_11 
REMARK    3  A    between atoms: C_13  and  O_14 
REMARK    4  A    between atoms: C_19  and  O_20 
REMARK    5  A    between atoms: O_20  and  C_21 
REMARK    6  A    between atoms: C_23  and  C_33 
REMARK    7  A    between atoms: C_24  and  O_25 
REMARK    8  A    between atoms: C_27  and  O_28 
REMARK    9  A    between atoms: C_30  and  O_31 
REMARK   10  A    between atoms: C_33  and  O_34 
REMARK   11  A    between atoms: C_37  and  O_38 
ROOT
HETATM    1  O   UNK N   1      27.859  38.656  56.251  0.00  0.00    -0.287 OA
HETATM    2  C   UNK N   1      28.065  39.787  55.848  0.00  0.00     0.190 A 
HETATM    3  C   UNK N   1      28.907  40.681  56.558  0.00  0.00     0.081 A 
HETATM    4  C   UNK N   1      29.103  41.968  56.013  0.00  0.00     0.095 A 
HETATM    5  O   UNK N   1      28.525  42.316  54.871  0.00  0.00    -0.309 OA
HETATM    6  C   UNK N   1      27.717  41.512  54.187  0.00  0.00     0.090 A 
HETATM    7  C   UNK N   1      27.459  40.216  54.659  0.00  0.00     0.094 A 
HETATM    8  C   UNK N   1      29.902  42.902  56.672  0.00  0.00     0.075 A 
HETATM    9  C   UNK N   1      30.534  42.574  57.881  0.00  0.00     0.077 A 
HETATM   10  C   UNK N   1      30.371  41.304  58.414  0.00  0.00     0.074 A 
HETATM   11  C   UNK N   1      29.561  40.353  57.776  0.00  0.00     0.085 A 
ENDROOT
BRANCH   9  12
HETATM   12  O   UNK N   1      31.279  43.475  58.563  0.00  0.00    -0.318 OA
BRANCH  12  13
HETATM   13  C   UNK N   1      31.991  43.164  59.709  0.00  0.00     0.298 C 
HETATM   14  O   UNK N   1      31.499  43.939  60.782  0.00  0.00    -0.348 OA
HETATM   15  C   UNK N   1      32.135  43.582  62.002  0.00  0.00     0.179 C 
HETATM   16  C   UNK N   1      33.642  43.930  61.949  0.00  0.00     0.180 C 
HETATM   17  C   UNK N   1      34.296  43.243  60.734  0.00  0.00     0.183 C 
HETATM   18  C   UNK N   1      33.480  43.460  59.448  0.00  0.00     0.205 C 
BRANCH  15  19
HETATM   19  C   UNK N   1      31.445  44.365  63.134  0.00  0.00     0.198 C 
BRANCH  19  20
HETATM   20  O   UNK N   1      31.735  43.803  64.387  0.00  0.00    -0.398 OA
HETATM   21  H   UNK N   1      31.405  44.438  65.076  0.00  0.00     0.209 HD
ENDBRANCH  19  20
ENDBRANCH  15  19
BRANCH  16  22
HETATM   22  O   UNK N   1      34.267  43.514  63.138  0.00  0.00    -0.390 OA
HETATM   23  H   UNK N   1      33.551  43.315  63.795  0.00  0.00     0.210 HD
ENDBRANCH  16  22
BRANCH  17  24
HETATM   24  O   UNK N   1      35.608  43.716  60.555  0.00  0.00    -0.390 OA
HETATM   25  H   UNK N   1      35.639  44.162  59.665  0.00  0.00     0.210 HD
ENDBRANCH  17  24
BRANCH  18  26
HETATM   26  O   UNK N   1      33.989  42.607  58.454  0.00  0.00    -0.388 OA
HETATM   27  H   UNK N   1      34.975  42.582  58.552  0.00  0.00     0.210 HD
ENDBRANCH  18  26
ENDBRANCH  12  13
ENDBRANCH   9  12
BRANCH  11  28
HETATM   28  O   UNK N   1      29.419  39.146  58.348  0.00  0.00    -0.360 OA
HETATM   29  H   UNK N   1      30.165  38.752  58.827  0.00  0.00     0.217 HD
ENDBRANCH  11  28
BRANCH   6  30
HETATM   30  C   UNK N   1      27.119  42.027  52.935  0.00  0.00     0.001 A 
HETATM   31  C   UNK N   1      27.189  41.240  51.781  0.00  0.00     0.053 A 
HETATM   32  C   UNK N   1      26.644  41.688  50.574  0.00  0.00     0.099 A 
HETATM   33  C   UNK N   1      26.039  42.948  50.501  0.00  0.00     0.101 A 
HETATM   34  C   UNK N   1      25.980  43.746  51.662  0.00  0.00     0.040 A 
HETATM   35  C   UNK N   1      26.504  43.286  52.865  0.00  0.00     0.017 A 
BRANCH  32  36
HETATM   36  O   UNK N   1      26.704  40.896  49.491  0.00  0.00    -0.358 OA
HETATM   37  H   UNK N   1      27.214  40.074  49.524  0.00  0.00     0.218 HD
ENDBRANCH  32  36
BRANCH  33  38
HETATM   38  O   UNK N   1      25.524  43.375  49.318  0.00  0.00    -0.353 OA
HETATM   39  C   UNK N   1      24.276  43.950  49.212  0.00  0.00     0.210 C 
ENDBRANCH  33  38
ENDBRANCH   6  30
TORSDOF 11
ENDMDL
MODEL 9
REMARK VINA RESULT:      -4.9      2.540      4.470
REMARK  11 active torsions:
REMARK  status: ('A' for Active; 'I' for Inactive)
REMARK    1  A    between atoms: C_6  and  C_8 
REMARK    2  A    between atoms: C_10  and  O_11 
REMARK    3  A    between atoms: C_13  and  O_14 
REMARK    4  A    between atoms: C_19  and  O_20 
REMARK    5  A    between atoms: O_20  and  C_21 
REMARK    6  A    between atoms: C_23  and  C_33 
REMARK    7  A    between atoms: C_24  and  O_25 
REMARK    8  A    between atoms: C_27  and  O_28 
REMARK    9  A    between atoms: C_30  and  O_31 
REMARK   10  A    between atoms: C_33  and  O_34 
REMARK   11  A    between atoms: C_37  and  O_38 
ROOT
HETATM    1  O   UNK N   1      28.776  37.700  54.672  0.00  0.00    -0.287 OA
HETATM    2  C   UNK N   1      28.490  38.884  54.720  0.00  0.00     0.190 A 
HETATM    3  C   UNK N   1      28.749  39.659  55.879  0.00  0.00     0.081 A 
HETATM    4  C   UNK N   1      28.399  41.026  55.844  0.00  0.00     0.095 A 
HETATM    5  O   UNK N   1      27.859  41.560  54.756  0.00  0.00    -0.309 OA
HETATM    6  C   UNK N   1      27.587  40.862  53.658  0.00  0.00     0.090 A 
HETATM    7  C   UNK N   1      27.894  39.495  53.607  0.00  0.00     0.094 A 
HETATM    8  C   UNK N   1      28.607  41.839  56.958  0.00  0.00     0.075 A 
HETATM    9  C   UNK N   1      29.178  41.315  58.127  0.00  0.00     0.077 A 
HETATM   10  C   UNK N   1      29.550  39.979  58.166  0.00  0.00     0.074 A 
HETATM   11  C   UNK N   1      29.338  39.139  57.063  0.00  0.00     0.085 A 
ENDROOT
BRANCH   9  12
HETATM   12  O   UNK N   1      29.351  42.070  59.237  0.00  0.00    -0.318 OA
BRANCH  12  13
HETATM   13  C   UNK N   1      29.784  43.384  59.206  0.00  0.00     0.298 C 
HETATM   14  O   UNK N   1      28.714  44.213  58.803  0.00  0.00    -0.348 OA
HETATM   15  C   UNK N   1      29.086  45.584  58.852  0.00  0.00     0.179 C 
HETATM   16  C   UNK N   1      30.199  45.880  57.818  0.00  0.00     0.180 C 
HETATM   17  C   UNK N   1      31.401  44.948  58.060  0.00  0.00     0.183 C 
HETATM   18  C   UNK N   1      30.963  43.481  58.219  0.00  0.00     0.205 C 
BRANCH  15  19
HETATM   19  C   UNK N   1      27.830  46.418  58.539  0.00  0.00     0.198 C 
BRANCH  19  20
HETATM   20  O   UNK N   1      27.896  46.966  57.248  0.00  0.00    -0.398 OA
HETATM   21  H   UNK N   1      27.104  46.633  56.748  0.00  0.00     0.209 HD
ENDBRANCH  19  20
ENDBRANCH  15  19
BRANCH  16  22
HETATM   22  O   UNK N   1      30.598  47.225  57.923  0.00  0.00    -0.390 OA
HETATM   23  H   UNK N   1      29.795  47.753  58.170  0.00  0.00     0.210 HD
ENDBRANCH  16  22
BRANCH  17  24
HETATM   24  O   UNK N   1      32.326  45.061  57.007  0.00  0.00    -0.390 OA
HETATM   25  H   UNK N   1      33.211  45.262  57.417  0.00  0.00     0.210 HD
ENDBRANCH  17  24
BRANCH  18  26
HETATM   26  O   UNK N   1      32.063  42.740  58.685  0.00  0.00    -0.388 OA
HETATM   27  H   UNK N   1      32.013  41.837  58.279  0.00  0.00     0.210 HD
ENDBRANCH  18  26
ENDBRANCH  12  13
ENDBRANCH   9  12
BRANCH  11  28
HETATM   28  O   UNK N   1      29.695  37.848  57.163  0.00  0.00    -0.360 OA
HETATM   29  H   UNK N   1      29.132  37.164  56.771  0.00  0.00     0.217 HD
ENDBRANCH  11  28
BRANCH   6  30
HETATM   30  C   UNK N   1      26.966  41.573  52.518  0.00  0.00     0.001 A 
HETATM   31  C   UNK N   1      26.915  40.937  51.273  0.00  0.00     0.053 A 
HETATM   32  C   UNK N   1      26.344  41.571  50.167  0.00  0.00     0.099 A 
HETATM   33  C   UNK N   1      25.834  42.869  50.287  0.00  0.00     0.101 A 
HETATM   34  C   UNK N   1      25.896  43.515  51.539  0.00  0.00     0.040 A 
HETATM   35  C   UNK N   1      26.446  42.871  52.642  0.00  0.00     0.017 A 
BRANCH  32  36
HETATM   36  O   UNK N   1      26.288  40.922  48.993  0.00  0.00    -0.358 OA
HETATM   37  H   UNK N   1      27.102  40.755  48.496  0.00  0.00     0.218 HD
ENDBRANCH  32  36
BRANCH  33  38
HETATM   38  O   UNK N   1      25.293  43.478  49.200  0.00  0.00    -0.353 OA
HETATM   39  C   UNK N   1      24.074  44.122  49.234  0.00  0.00     0.210 C 
ENDBRANCH  33  38
ENDBRANCH   6  30
TORSDOF 11
ENDMDL
