MODEL 1
REMARK VINA RESULT:      -5.6      0.000      0.000
REMARK  10 active torsions:
REMARK  status: ('A' for Active; 'I' for Inactive)
REMARK    1  A    between atoms: C_6  and  C_8 
REMARK    2  A    between atoms: C_10  and  O_11 
REMARK    3  A    between atoms: C_13  and  O_14 
REMARK    4  A    between atoms: C_19  and  O_20 
REMARK    5  A    between atoms: O_20  and  C_21 
REMARK    6  A    between atoms: C_24  and  O_25 
REMARK    7  A    between atoms: C_24  and  C_30 
REMARK    8  A    between atoms: C_27  and  O_28 
REMARK    9  A    between atoms: C_30  and  O_31 
REMARK   10  A    between atoms: C_34  and  O_35 
ROOT
HETATM    1  O   UNK N   1      44.422  48.419  48.286  0.00  0.00    -0.287 OA
HETATM    2  C   UNK N   1      43.345  47.850  48.250  0.00  0.00     0.190 A 
HETATM    3  C   UNK N   1      42.440  48.061  47.189  0.00  0.00     0.081 A 
HETATM    4  C   UNK N   1      41.209  47.374  47.228  0.00  0.00     0.095 A 
HETATM    5  O   UNK N   1      40.918  46.562  48.238  0.00  0.00    -0.309 OA
HETATM    6  C   UNK N   1      41.755  46.318  49.243  0.00  0.00     0.090 A 
HETATM    7  C   UNK N   1      43.005  46.963  49.273  0.00  0.00     0.094 A 
HETATM    8  C   UNK N   1      40.279  47.532  46.203  0.00  0.00     0.075 A 
HETATM    9  C   UNK N   1      40.556  48.373  45.110  0.00  0.00     0.077 A 
HETATM   10  C   UNK N   1      41.773  49.060  45.065  0.00  0.00     0.074 A 
HETATM   11  C   UNK N   1      42.716  48.923  46.097  0.00  0.00     0.085 A 
ENDROOT
BRANCH   9  12
HETATM   12  O   UNK N   1      39.669  48.549  44.094  0.00  0.00    -0.318 OA
BRANCH  12  13
HETATM   13  C   UNK N   1      39.335  49.780  43.552  0.00  0.00     0.298 C 
HETATM   14  O   UNK N   1      39.284  49.636  42.143  0.00  0.00    -0.355 OA
HETATM   15  C   UNK N   1      37.911  49.568  41.784  0.00  0.00     0.214 C 
HETATM   16  C   UNK N   1      37.084  49.385  43.062  0.00  0.00     0.130 C 
HETATM   17  C   UNK N   1      37.941  50.232  43.978  0.00  0.00     0.212 C 
BRANCH  16  18
HETATM   18  O   UNK N   1      37.116  48.022  43.432  0.00  0.00    -0.383 OA
HETATM   19  H   UNK N   1      36.282  47.594  43.107  0.00  0.00     0.210 HD
ENDBRANCH  16  18
BRANCH  16  20
HETATM   20  C   UNK N   1      35.629  49.870  42.886  0.00  0.00     0.207 C 
BRANCH  20  21
HETATM   21  O   UNK N   1      35.257  50.754  43.910  0.00  0.00    -0.398 OA
HETATM   22  H   UNK N   1      35.870  50.584  44.671  0.00  0.00     0.209 HD
ENDBRANCH  20  21
ENDBRANCH  16  20
BRANCH  17  23
HETATM   23  O   UNK N   1      37.668  50.131  45.355  0.00  0.00    -0.387 OA
HETATM   24  H   UNK N   1      36.687  50.081  45.480  0.00  0.00     0.210 HD
ENDBRANCH  17  23
ENDBRANCH  12  13
ENDBRANCH   9  12
BRANCH  11  25
HETATM   25  O   UNK N   1      43.875  49.613  46.039  0.00  0.00    -0.360 OA
HETATM   26  H   UNK N   1      44.689  49.217  45.696  0.00  0.00     0.217 HD
ENDBRANCH  11  25
BRANCH   6  27
HETATM   27  C   UNK N   1      41.328  45.356  50.295  0.00  0.00     0.001 A 
HETATM   28  C   UNK N   1      41.867  45.469  51.588  0.00  0.00     0.053 A 
HETATM   29  C   UNK N   1      41.484  44.583  52.606  0.00  0.00     0.099 A 
HETATM   30  C   UNK N   1      40.530  43.589  52.351  0.00  0.00     0.101 A 
HETATM   31  C   UNK N   1      39.979  43.478  51.059  0.00  0.00     0.040 A 
HETATM   32  C   UNK N   1      40.382  44.344  50.041  0.00  0.00     0.017 A 
BRANCH  29  33
HETATM   33  O   UNK N   1      42.030  44.685  53.836  0.00  0.00    -0.358 OA
HETATM   34  H   UNK N   1      42.375  45.524  54.175  0.00  0.00     0.218 HD
ENDBRANCH  29  33
BRANCH  30  35
HETATM   35  O   UNK N   1      40.164  42.760  53.366  0.00  0.00    -0.353 OA
HETATM   36  C   UNK N   1      38.890  42.276  53.577  0.00  0.00     0.210 C 
ENDBRANCH  30  35
ENDBRANCH   6  27
TORSDOF 10
ENDMDL
MODEL 2
REMARK VINA RESULT:      -5.5     14.575     16.091
REMARK  10 active torsions:
REMARK  status: ('A' for Active; 'I' for Inactive)
REMARK    1  A    between atoms: C_6  and  C_8 
REMARK    2  A    between atoms: C_10  and  O_11 
REMARK    3  A    between atoms: C_13  and  O_14 
REMARK    4  A    between atoms: C_19  and  O_20 
REMARK    5  A    between atoms: O_20  and  C_21 
REMARK    6  A    between atoms: C_24  and  O_25 
REMARK    7  A    between atoms: C_24  and  C_30 
REMARK    8  A    between atoms: C_27  and  O_28 
REMARK    9  A    between atoms: C_30  and  O_31 
REMARK   10  A    between atoms: C_34  and  O_35 
ROOT
HETATM    1  O   UNK N   1      44.520  56.480  61.937  0.00  0.00    -0.287 OA
HETATM    2  C   UNK N   1      45.112  55.489  61.546  0.00  0.00     0.190 A 
HETATM    3  C   UNK N   1      45.912  55.524  60.385  0.00  0.00     0.081 A 
HETATM    4  C   UNK N   1      46.553  54.330  59.992  0.00  0.00     0.095 A 
HETATM    5  O   UNK N   1      46.396  53.214  60.694  0.00  0.00    -0.309 OA
HETATM    6  C   UNK N   1      45.671  53.148  61.807  0.00  0.00     0.090 A 
HETATM    7  C   UNK N   1      45.003  54.298  62.266  0.00  0.00     0.094 A 
HETATM    8  C   UNK N   1      47.366  54.304  58.861  0.00  0.00     0.075 A 
HETATM    9  C   UNK N   1      47.567  55.470  58.098  0.00  0.00     0.077 A 
HETATM   10  C   UNK N   1      46.933  56.656  58.480  0.00  0.00     0.074 A 
HETATM   11  C   UNK N   1      46.098  56.695  59.609  0.00  0.00     0.085 A 
ENDROOT
BRANCH   9  12
HETATM   12  O   UNK N   1      48.353  55.477  56.989  0.00  0.00    -0.318 OA
BRANCH  12  13
HETATM   13  C   UNK N   1      49.377  56.383  56.762  0.00  0.00     0.298 C 
HETATM   14  O   UNK N   1      50.585  55.800  57.219  0.00  0.00    -0.355 OA
HETATM   15  C   UNK N   1      51.286  55.348  56.070  0.00  0.00     0.214 C 
HETATM   16  C   UNK N   1      50.338  55.409  54.867  0.00  0.00     0.130 C 
HETATM   17  C   UNK N   1      49.579  56.653  55.274  0.00  0.00     0.212 C 
BRANCH  16  18
HETATM   18  O   UNK N   1      49.509  54.266  54.884  0.00  0.00    -0.383 OA
HETATM   19  H   UNK N   1      48.719  54.448  54.311  0.00  0.00     0.210 HD
ENDBRANCH  16  18
BRANCH  16  20
HETATM   20  C   UNK N   1      51.102  55.511  53.529  0.00  0.00     0.207 C 
BRANCH  20  21
HETATM   21  O   UNK N   1      50.242  55.846  52.473  0.00  0.00    -0.398 OA
HETATM   22  H   UNK N   1      49.769  56.676  52.741  0.00  0.00     0.209 HD
ENDBRANCH  20  21
ENDBRANCH  16  20
BRANCH  17  23
HETATM   23  O   UNK N   1      48.407  56.934  54.546  0.00  0.00    -0.387 OA
HETATM   24  H   UNK N   1      47.894  56.094  54.436  0.00  0.00     0.210 HD
ENDBRANCH  17  23
ENDBRANCH  12  13
ENDBRANCH   9  12
BRANCH  11  25
HETATM   25  O   UNK N   1      45.482  57.849  59.944  0.00  0.00    -0.360 OA
HETATM   26  H   UNK N   1      45.046  57.966  60.800  0.00  0.00     0.217 HD
ENDBRANCH  11  25
BRANCH   6  27
HETATM   27  C   UNK N   1      45.606  51.847  62.527  0.00  0.00     0.001 A 
HETATM   28  C   UNK N   1      45.948  50.666  61.844  0.00  0.00     0.053 A 
HETATM   29  C   UNK N   1      45.903  49.423  62.493  0.00  0.00     0.099 A 
HETATM   30  C   UNK N   1      45.544  49.347  63.845  0.00  0.00     0.101 A 
HETATM   31  C   UNK N   1      45.209  50.529  64.536  0.00  0.00     0.040 A 
HETATM   32  C   UNK N   1      45.230  51.762  63.881  0.00  0.00     0.017 A 
BRANCH  29  33
HETATM   33  O   UNK N   1      46.208  48.294  61.819  0.00  0.00    -0.358 OA
HETATM   34  H   UNK N   1      46.189  48.255  60.851  0.00  0.00     0.218 HD
ENDBRANCH  29  33
BRANCH  30  35
HETATM   35  O   UNK N   1      45.531  48.129  64.450  0.00  0.00    -0.353 OA
HETATM   36  C   UNK N   1      46.402  47.723  65.439  0.00  0.00     0.210 C 
ENDBRANCH  30  35
ENDBRANCH   6  27
TORSDOF 10
ENDMDL
MODEL 3
REMARK VINA RESULT:      -5.5     13.897     16.382
REMARK  10 active torsions:
REMARK  status: ('A' for Active; 'I' for Inactive)
REMARK    1  A    between atoms: C_6  and  C_8 
REMARK    2  A    between atoms: C_10  and  O_11 
REMARK    3  A    between atoms: C_13  and  O_14 
REMARK    4  A    between atoms: C_19  and  O_20 
REMARK    5  A    between atoms: O_20  and  C_21 
REMARK    6  A    between atoms: C_24  and  O_25 
REMARK    7  A    between atoms: C_24  and  C_30 
REMARK    8  A    between atoms: C_27  and  O_28 
REMARK    9  A    between atoms: C_30  and  O_31 
REMARK   10  A    between atoms: C_34  and  O_35 
ROOT
HETATM    1  O   UNK N   1      31.608  42.697  64.342  0.00  0.00    -0.287 OA
HETATM    2  C   UNK N   1      32.278  43.125  63.418  0.00  0.00     0.190 A 
HETATM    3  C   UNK N   1      31.962  42.817  62.079  0.00  0.00     0.081 A 
HETATM    4  C   UNK N   1      32.796  43.341  61.069  0.00  0.00     0.095 A 
HETATM    5  O   UNK N   1      33.845  44.093  61.379  0.00  0.00    -0.309 OA
HETATM    6  C   UNK N   1      34.161  44.426  62.628  0.00  0.00     0.090 A 
HETATM    7  C   UNK N   1      33.375  43.944  63.691  0.00  0.00     0.094 A 
HETATM    8  C   UNK N   1      32.528  43.083  59.727  0.00  0.00     0.075 A 
HETATM    9  C   UNK N   1      31.417  42.301  59.357  0.00  0.00     0.077 A 
HETATM   10  C   UNK N   1      30.587  41.776  60.352  0.00  0.00     0.074 A 
HETATM   11  C   UNK N   1      30.852  42.016  61.711  0.00  0.00     0.085 A 
ENDROOT
BRANCH   9  12
HETATM   12  O   UNK N   1      31.129  42.030  58.056  0.00  0.00    -0.318 OA
BRANCH  12  13
HETATM   13  C   UNK N   1      31.053  42.987  57.056  0.00  0.00     0.298 C 
HETATM   14  O   UNK N   1      31.890  42.571  55.991  0.00  0.00    -0.355 OA
HETATM   15  C   UNK N   1      31.042  42.043  54.981  0.00  0.00     0.214 C 
HETATM   16  C   UNK N   1      29.636  41.873  55.568  0.00  0.00     0.130 C 
HETATM   17  C   UNK N   1      29.648  43.088  56.469  0.00  0.00     0.212 C 
BRANCH  16  18
HETATM   18  O   UNK N   1      29.596  40.674  56.312  0.00  0.00    -0.383 OA
HETATM   19  H   UNK N   1      30.486  40.540  56.731  0.00  0.00     0.210 HD
ENDBRANCH  16  18
BRANCH  16  20
HETATM   20  C   UNK N   1      28.546  41.875  54.474  0.00  0.00     0.207 C 
BRANCH  20  21
HETATM   21  O   UNK N   1      27.655  42.946  54.641  0.00  0.00    -0.398 OA
HETATM   22  H   UNK N   1      27.617  43.137  55.614  0.00  0.00     0.209 HD
ENDBRANCH  20  21
ENDBRANCH  16  20
BRANCH  17  23
HETATM   23  O   UNK N   1      28.605  43.175  57.411  0.00  0.00    -0.387 OA
HETATM   24  H   UNK N   1      28.871  42.677  58.225  0.00  0.00     0.210 HD
ENDBRANCH  17  23
ENDBRANCH  12  13
ENDBRANCH   9  12
BRANCH  11  25
HETATM   25  O   UNK N   1      30.046  41.480  62.653  0.00  0.00    -0.360 OA
HETATM   26  H   UNK N   1      30.056  40.533  62.855  0.00  0.00     0.217 HD
ENDBRANCH  11  25
BRANCH   6  27
HETATM   27  C   UNK N   1      35.340  45.308  62.843  0.00  0.00     0.001 A 
HETATM   28  C   UNK N   1      36.617  44.851  62.473  0.00  0.00     0.053 A 
HETATM   29  C   UNK N   1      37.749  45.658  62.656  0.00  0.00     0.099 A 
HETATM   30  C   UNK N   1      37.616  46.948  63.186  0.00  0.00     0.101 A 
HETATM   31  C   UNK N   1      36.337  47.414  63.549  0.00  0.00     0.040 A 
HETATM   32  C   UNK N   1      35.214  46.600  63.389  0.00  0.00     0.017 A 
BRANCH  29  33
HETATM   33  O   UNK N   1      38.974  45.197  62.322  0.00  0.00    -0.358 OA
HETATM   34  H   UNK N   1      39.362  45.363  61.451  0.00  0.00     0.218 HD
ENDBRANCH  29  33
BRANCH  30  35
HETATM   35  O   UNK N   1      38.732  47.713  63.331  0.00  0.00    -0.353 OA
HETATM   36  C   UNK N   1      39.319  48.044  64.534  0.00  0.00     0.210 C 
ENDBRANCH  30  35
ENDBRANCH   6  27
TORSDOF 10
ENDMDL
MODEL 4
REMARK VINA RESULT:      -5.4     13.648     16.349
REMARK  10 active torsions:
REMARK  status: ('A' for Active; 'I' for Inactive)
REMARK    1  A    between atoms: C_6  and  C_8 
REMARK    2  A    between atoms: C_10  and  O_11 
REMARK    3  A    between atoms: C_13  and  O_14 
REMARK    4  A    between atoms: C_19  and  O_20 
REMARK    5  A    between atoms: O_20  and  C_21 
REMARK    6  A    between atoms: C_24  and  O_25 
REMARK    7  A    between atoms: C_24  and  C_30 
REMARK    8  A    between atoms: C_27  and  O_28 
REMARK    9  A    between atoms: C_30  and  O_31 
REMARK   10  A    between atoms: C_34  and  O_35 
ROOT
HETATM    1  O   UNK N   1      30.594  37.710  60.213  0.00  0.00    -0.287 OA
HETATM    2  C   UNK N   1      30.654  38.879  59.875  0.00  0.00     0.190 A 
HETATM    3  C   UNK N   1      29.904  39.367  58.784  0.00  0.00     0.081 A 
HETATM    4  C   UNK N   1      30.041  40.731  58.449  0.00  0.00     0.095 A 
HETATM    5  O   UNK N   1      30.856  41.520  59.140  0.00  0.00    -0.309 OA
HETATM    6  C   UNK N   1      31.559  41.103  60.189  0.00  0.00     0.090 A 
HETATM    7  C   UNK N   1      31.474  39.756  60.588  0.00  0.00     0.094 A 
HETATM    8  C   UNK N   1      29.317  41.273  57.390  0.00  0.00     0.075 A 
HETATM    9  C   UNK N   1      28.434  40.472  56.643  0.00  0.00     0.077 A 
HETATM   10  C   UNK N   1      28.295  39.120  56.967  0.00  0.00     0.074 A 
HETATM   11  C   UNK N   1      29.028  38.553  58.023  0.00  0.00     0.085 A 
ENDROOT
BRANCH   9  12
HETATM   12  O   UNK N   1      27.714  40.972  55.603  0.00  0.00    -0.318 OA
BRANCH  12  13
HETATM   13  C   UNK N   1      27.777  40.489  54.305  0.00  0.00     0.298 C 
HETATM   14  O   UNK N   1      26.479  40.581  53.743  0.00  0.00    -0.355 OA
HETATM   15  C   UNK N   1      26.480  41.712  52.884  0.00  0.00     0.214 C 
HETATM   16  C   UNK N   1      27.759  42.517  53.142  0.00  0.00     0.130 C 
HETATM   17  C   UNK N   1      28.678  41.348  53.421  0.00  0.00     0.212 C 
BRANCH  16  18
HETATM   18  O   UNK N   1      27.569  43.315  54.291  0.00  0.00    -0.383 OA
HETATM   19  H   UNK N   1      28.439  43.390  54.762  0.00  0.00     0.210 HD
ENDBRANCH  16  18
BRANCH  16  20
HETATM   20  C   UNK N   1      28.151  43.388  51.929  0.00  0.00     0.207 C 
BRANCH  20  21
HETATM   21  O   UNK N   1      29.393  43.002  51.401  0.00  0.00    -0.398 OA
HETATM   22  H   UNK N   1      30.088  43.429  51.965  0.00  0.00     0.209 HD
ENDBRANCH  20  21
ENDBRANCH  16  20
BRANCH  17  23
HETATM   23  O   UNK N   1      29.937  41.661  53.966  0.00  0.00    -0.387 OA
HETATM   24  H   UNK N   1      30.215  42.550  53.628  0.00  0.00     0.210 HD
ENDBRANCH  17  23
ENDBRANCH  12  13
ENDBRANCH   9  12
BRANCH  11  25
HETATM   25  O   UNK N   1      28.891  37.239  58.302  0.00  0.00    -0.360 OA
HETATM   26  H   UNK N   1      28.021  36.819  58.367  0.00  0.00     0.217 HD
ENDBRANCH  11  25
BRANCH   6  27
HETATM   27  C   UNK N   1      32.407  42.095  60.905  0.00  0.00     0.001 A 
HETATM   28  C   UNK N   1      33.657  42.446  60.366  0.00  0.00     0.053 A 
HETATM   29  C   UNK N   1      34.479  43.381  61.012  0.00  0.00     0.099 A 
HETATM   30  C   UNK N   1      34.049  44.002  62.191  0.00  0.00     0.101 A 
HETATM   31  C   UNK N   1      32.792  43.660  62.730  0.00  0.00     0.040 A 
HETATM   32  C   UNK N   1      31.986  42.710  62.100  0.00  0.00     0.017 A 
BRANCH  29  33
HETATM   33  O   UNK N   1      35.689  43.689  60.499  0.00  0.00    -0.358 OA
HETATM   34  H   UNK N   1      36.239  43.028  60.052  0.00  0.00     0.218 HD
ENDBRANCH  29  33
BRANCH  30  35
HETATM   35  O   UNK N   1      34.862  44.920  62.781  0.00  0.00    -0.353 OA
HETATM   36  C   UNK N   1      35.557  44.729  63.956  0.00  0.00     0.210 C 
ENDBRANCH  30  35
ENDBRANCH   6  27
TORSDOF 10
ENDMDL
MODEL 5
REMARK VINA RESULT:      -5.2     14.245     17.152
REMARK  10 active torsions:
REMARK  status: ('A' for Active; 'I' for Inactive)
REMARK    1  A    between atoms: C_6  and  C_8 
REMARK    2  A    between atoms: C_10  and  O_11 
REMARK    3  A    between atoms: C_13  and  O_14 
REMARK    4  A    between atoms: C_19  and  O_20 
REMARK    5  A    between atoms: O_20  and  C_21 
REMARK    6  A    between atoms: C_24  and  O_25 
REMARK    7  A    between atoms: C_24  and  C_30 
REMARK    8  A    between atoms: C_27  and  O_28 
REMARK    9  A    between atoms: C_30  and  O_31 
REMARK   10  A    between atoms: C_34  and  O_35 
ROOT
HETATM    1  O   UNK N   1      52.199  49.527  59.750  0.00  0.00    -0.287 OA
HETATM    2  C   UNK N   1      51.352  50.374  59.527  0.00  0.00     0.190 A 
HETATM    3  C   UNK N   1      50.156  50.428  60.273  0.00  0.00     0.081 A 
HETATM    4  C   UNK N   1      49.220  51.432  59.943  0.00  0.00     0.095 A 
HETATM    5  O   UNK N   1      49.464  52.289  58.958  0.00  0.00    -0.309 OA
HETATM    6  C   UNK N   1      50.590  52.285  58.250  0.00  0.00     0.090 A 
HETATM    7  C   UNK N   1      51.574  51.316  58.521  0.00  0.00     0.094 A 
HETATM    8  C   UNK N   1      48.026  51.544  60.651  0.00  0.00     0.075 A 
HETATM    9  C   UNK N   1      47.738  50.663  61.710  0.00  0.00     0.077 A 
HETATM   10  C   UNK N   1      48.658  49.665  62.041  0.00  0.00     0.074 A 
HETATM   11  C   UNK N   1      49.861  49.529  61.327  0.00  0.00     0.085 A 
ENDROOT
BRANCH   9  12
HETATM   12  O   UNK N   1      46.580  50.746  62.419  0.00  0.00    -0.318 OA
BRANCH  12  13
HETATM   13  C   UNK N   1      45.708  49.688  62.619  0.00  0.00     0.298 C 
HETATM   14  O   UNK N   1      45.054  49.890  63.860  0.00  0.00    -0.355 OA
HETATM   15  C   UNK N   1      43.751  50.372  63.567  0.00  0.00     0.214 C 
HETATM   16  C   UNK N   1      43.694  50.746  62.081  0.00  0.00     0.130 C 
HETATM   17  C   UNK N   1      44.604  49.653  61.565  0.00  0.00     0.212 C 
BRANCH  16  18
HETATM   18  O   UNK N   1      44.269  52.025  61.913  0.00  0.00    -0.383 OA
HETATM   19  H   UNK N   1      43.685  52.688  62.363  0.00  0.00     0.210 HD
ENDBRANCH  16  18
BRANCH  16  20
HETATM   20  C   UNK N   1      42.252  50.718  61.530  0.00  0.00     0.207 C 
BRANCH  20  21
HETATM   21  O   UNK N   1      42.207  50.161  60.243  0.00  0.00    -0.398 OA
HETATM   22  H   UNK N   1      43.116  50.258  59.857  0.00  0.00     0.209 HD
ENDBRANCH  20  21
ENDBRANCH  16  20
BRANCH  17  23
HETATM   23  O   UNK N   1      45.038  49.782  60.232  0.00  0.00    -0.387 OA
HETATM   24  H   UNK N   1      45.923  50.226  60.228  0.00  0.00     0.210 HD
ENDBRANCH  17  23
ENDBRANCH  12  13
ENDBRANCH   9  12
BRANCH  11  25
HETATM   25  O   UNK N   1      50.724  48.543  61.654  0.00  0.00    -0.360 OA
HETATM   26  H   UNK N   1      51.671  48.709  61.764  0.00  0.00     0.217 HD
ENDBRANCH  11  25
BRANCH   6  27
HETATM   27  C   UNK N   1      50.762  53.323  57.197  0.00  0.00     0.001 A 
HETATM   28  C   UNK N   1      50.972  52.923  55.866  0.00  0.00     0.053 A 
HETATM   29  C   UNK N   1      51.132  53.875  54.848  0.00  0.00     0.099 A 
HETATM   30  C   UNK N   1      51.054  55.242  55.143  0.00  0.00     0.101 A 
HETATM   31  C   UNK N   1      50.834  55.647  56.475  0.00  0.00     0.040 A 
HETATM   32  C   UNK N   1      50.700  54.699  57.491  0.00  0.00     0.017 A 
BRANCH  29  33
HETATM   33  O   UNK N   1      51.361  53.478  53.578  0.00  0.00    -0.358 OA
HETATM   34  H   UNK N   1      50.637  53.311  52.956  0.00  0.00     0.218 HD
ENDBRANCH  29  33
BRANCH  30  35
HETATM   35  O   UNK N   1      51.192  56.138  54.128  0.00  0.00    -0.353 OA
HETATM   36  C   UNK N   1      50.184  56.935  53.628  0.00  0.00     0.210 C 
ENDBRANCH  30  35
ENDBRANCH   6  27
TORSDOF 10
ENDMDL
MODEL 6
REMARK VINA RESULT:      -5.2     13.822     15.779
REMARK  10 active torsions:
REMARK  status: ('A' for Active; 'I' for Inactive)
REMARK    1  A    between atoms: C_6  and  C_8 
REMARK    2  A    between atoms: C_10  and  O_11 
REMARK    3  A    between atoms: C_13  and  O_14 
REMARK    4  A    between atoms: C_19  and  O_20 
REMARK    5  A    between atoms: O_20  and  C_21 
REMARK    6  A    between atoms: C_24  and  O_25 
REMARK    7  A    between atoms: C_24  and  C_30 
REMARK    8  A    between atoms: C_27  and  O_28 
REMARK    9  A    between atoms: C_30  and  O_31 
REMARK   10  A    between atoms: C_34  and  O_35 
ROOT
HETATM    1  O   UNK N   1      29.006  38.847  59.445  0.00  0.00    -0.287 OA
HETATM    2  C   UNK N   1      29.499  39.887  59.046  0.00  0.00     0.190 A 
HETATM    3  C   UNK N   1      29.016  40.529  57.887  0.00  0.00     0.081 A 
HETATM    4  C   UNK N   1      29.651  41.724  57.484  0.00  0.00     0.095 A 
HETATM    5  O   UNK N   1      30.672  42.216  58.177  0.00  0.00    -0.309 OA
HETATM    6  C   UNK N   1      31.138  41.653  59.288  0.00  0.00     0.090 A 
HETATM    7  C   UNK N   1      30.555  40.461  59.756  0.00  0.00     0.094 A 
HETATM    8  C   UNK N   1      29.212  42.411  56.355  0.00  0.00     0.075 A 
HETATM    9  C   UNK N   1      28.125  41.928  55.602  0.00  0.00     0.077 A 
HETATM   10  C   UNK N   1      27.493  40.744  55.993  0.00  0.00     0.074 A 
HETATM   11  C   UNK N   1      27.932  40.032  57.122  0.00  0.00     0.085 A 
ENDROOT
BRANCH   9  12
HETATM   12  O   UNK N   1      27.673  42.575  54.495  0.00  0.00    -0.318 OA
BRANCH  12  13
HETATM   13  C   UNK N   1      28.410  42.743  53.333  0.00  0.00     0.298 C 
HETATM   14  O   UNK N   1      28.818  41.461  52.887  0.00  0.00    -0.355 OA
HETATM   15  C   UNK N   1      27.966  41.108  51.807  0.00  0.00     0.214 C 
HETATM   16  C   UNK N   1      26.800  42.102  51.764  0.00  0.00     0.130 C 
HETATM   17  C   UNK N   1      27.567  43.329  52.203  0.00  0.00     0.212 C 
BRANCH  16  18
HETATM   18  O   UNK N   1      25.840  41.717  52.725  0.00  0.00    -0.383 OA
HETATM   19  H   UNK N   1      25.754  40.729  52.697  0.00  0.00     0.210 HD
ENDBRANCH  16  18
BRANCH  16  20
HETATM   20  C   UNK N   1      26.164  42.190  50.359  0.00  0.00     0.207 C 
BRANCH  20  21
HETATM   21  O   UNK N   1      26.569  41.122  49.546  0.00  0.00    -0.398 OA
HETATM   22  H   UNK N   1      26.133  41.252  48.664  0.00  0.00     0.209 HD
ENDBRANCH  20  21
ENDBRANCH  16  20
BRANCH  17  23
HETATM   23  O   UNK N   1      26.796  44.455  52.548  0.00  0.00    -0.387 OA
HETATM   24  H   UNK N   1      26.677  45.016  51.740  0.00  0.00     0.210 HD
ENDBRANCH  17  23
ENDBRANCH  12  13
ENDBRANCH   9  12
BRANCH  11  25
HETATM   25  O   UNK N   1      27.317  38.880  57.466  0.00  0.00    -0.360 OA
HETATM   26  H   UNK N   1      27.813  38.108  57.772  0.00  0.00     0.217 HD
ENDBRANCH  11  25
BRANCH   6  27
HETATM   27  C   UNK N   1      32.262  42.323  59.996  0.00  0.00     0.001 A 
HETATM   28  C   UNK N   1      33.411  42.687  59.272  0.00  0.00     0.053 A 
HETATM   29  C   UNK N   1      34.487  43.325  59.906  0.00  0.00     0.099 A 
HETATM   30  C   UNK N   1      34.417  43.636  61.270  0.00  0.00     0.101 A 
HETATM   31  C   UNK N   1      33.263  43.281  61.999  0.00  0.00     0.040 A 
HETATM   32  C   UNK N   1      32.204  42.623  61.371  0.00  0.00     0.017 A 
BRANCH  29  33
HETATM   33  O   UNK N   1      35.596  43.645  59.206  0.00  0.00    -0.358 OA
HETATM   34  H   UNK N   1      36.186  42.967  58.845  0.00  0.00     0.218 HD
ENDBRANCH  29  33
BRANCH  30  35
HETATM   35  O   UNK N   1      35.469  44.274  61.850  0.00  0.00    -0.353 OA
HETATM   36  C   UNK N   1      35.536  44.656  63.174  0.00  0.00     0.210 C 
ENDBRANCH  30  35
ENDBRANCH   6  27
TORSDOF 10
ENDMDL
MODEL 7
REMARK VINA RESULT:      -5.1     13.965     17.998
REMARK  10 active torsions:
REMARK  status: ('A' for Active; 'I' for Inactive)
REMARK    1  A    between atoms: C_6  and  C_8 
REMARK    2  A    between atoms: C_10  and  O_11 
REMARK    3  A    between atoms: C_13  and  O_14 
REMARK    4  A    between atoms: C_19  and  O_20 
REMARK    5  A    between atoms: O_20  and  C_21 
REMARK    6  A    between atoms: C_24  and  O_25 
REMARK    7  A    between atoms: C_24  and  C_30 
REMARK    8  A    between atoms: C_27  and  O_28 
REMARK    9  A    between atoms: C_30  and  O_31 
REMARK   10  A    between atoms: C_34  and  O_35 
ROOT
HETATM    1  O   UNK N   1      30.115  42.816  63.627  0.00  0.00    -0.287 OA
HETATM    2  C   UNK N   1      30.885  42.983  62.697  0.00  0.00     0.190 A 
HETATM    3  C   UNK N   1      32.207  43.427  62.910  0.00  0.00     0.081 A 
HETATM    4  C   UNK N   1      33.030  43.607  61.779  0.00  0.00     0.095 A 
HETATM    5  O   UNK N   1      32.565  43.371  60.557  0.00  0.00    -0.309 OA
HETATM    6  C   UNK N   1      31.334  42.928  60.318  0.00  0.00     0.090 A 
HETATM    7  C   UNK N   1      30.453  42.720  61.396  0.00  0.00     0.094 A 
HETATM    8  C   UNK N   1      34.348  44.031  61.925  0.00  0.00     0.075 A 
HETATM    9  C   UNK N   1      34.882  44.279  63.204  0.00  0.00     0.077 A 
HETATM   10  C   UNK N   1      34.071  44.106  64.330  0.00  0.00     0.074 A 
HETATM   11  C   UNK N   1      32.735  43.692  64.198  0.00  0.00     0.085 A 
ENDROOT
BRANCH   9  12
HETATM   12  O   UNK N   1      36.164  44.695  63.380  0.00  0.00    -0.318 OA
BRANCH  12  13
HETATM   13  C   UNK N   1      36.801  45.627  62.575  0.00  0.00     0.298 C 
HETATM   14  O   UNK N   1      36.092  46.850  62.681  0.00  0.00    -0.355 OA
HETATM   15  C   UNK N   1      36.845  47.691  63.544  0.00  0.00     0.214 C 
HETATM   16  C   UNK N   1      37.929  46.845  64.221  0.00  0.00     0.130 C 
HETATM   17  C   UNK N   1      38.219  45.922  63.058  0.00  0.00     0.212 C 
BRANCH  16  18
HETATM   18  O   UNK N   1      37.351  46.150  65.306  0.00  0.00    -0.383 OA
HETATM   19  H   UNK N   1      37.446  46.711  66.119  0.00  0.00     0.210 HD
ENDBRANCH  16  18
BRANCH  16  20
HETATM   20  C   UNK N   1      39.123  47.702  64.695  0.00  0.00     0.207 C 
BRANCH  20  21
HETATM   21  O   UNK N   1      40.102  46.916  65.319  0.00  0.00    -0.398 OA
HETATM   22  H   UNK N   1      40.750  47.542  65.734  0.00  0.00     0.209 HD
ENDBRANCH  20  21
ENDBRANCH  16  20
BRANCH  17  23
HETATM   23  O   UNK N   1      39.008  44.791  63.342  0.00  0.00    -0.387 OA
HETATM   24  H   UNK N   1      39.639  44.650  62.592  0.00  0.00     0.210 HD
ENDBRANCH  17  23
ENDBRANCH  12  13
ENDBRANCH   9  12
BRANCH  11  25
HETATM   25  O   UNK N   1      31.968  43.551  65.300  0.00  0.00    -0.360 OA
HETATM   26  H   UNK N   1      31.037  43.290  65.246  0.00  0.00     0.217 HD
ENDBRANCH  11  25
BRANCH   6  27
HETATM   27  C   UNK N   1      30.944  42.662  58.907  0.00  0.00     0.001 A 
HETATM   28  C   UNK N   1      31.855  42.954  57.876  0.00  0.00     0.053 A 
HETATM   29  C   UNK N   1      31.523  42.712  56.535  0.00  0.00     0.099 A 
HETATM   30  C   UNK N   1      30.286  42.145  56.208  0.00  0.00     0.101 A 
HETATM   31  C   UNK N   1      29.373  41.841  57.238  0.00  0.00     0.040 A 
HETATM   32  C   UNK N   1      29.695  42.107  58.570  0.00  0.00     0.017 A 
BRANCH  29  33
HETATM   33  O   UNK N   1      32.396  43.022  55.553  0.00  0.00    -0.358 OA
HETATM   34  H   UNK N   1      32.212  42.821  54.624  0.00  0.00     0.218 HD
ENDBRANCH  29  33
BRANCH  30  35
HETATM   35  O   UNK N   1      30.003  41.902  54.899  0.00  0.00    -0.353 OA
HETATM   36  C   UNK N   1      29.076  40.990  54.441  0.00  0.00     0.210 C 
ENDBRANCH  30  35
ENDBRANCH   6  27
TORSDOF 10
ENDMDL
MODEL 8
REMARK VINA RESULT:      -5.1     13.569     15.729
REMARK  10 active torsions:
REMARK  status: ('A' for Active; 'I' for Inactive)
REMARK    1  A    between atoms: C_6  and  C_8 
REMARK    2  A    between atoms: C_10  and  O_11 
REMARK    3  A    between atoms: C_13  and  O_14 
REMARK    4  A    between atoms: C_19  and  O_20 
REMARK    5  A    between atoms: O_20  and  C_21 
REMARK    6  A    between atoms: C_24  and  O_25 
REMARK    7  A    between atoms: C_24  and  C_30 
REMARK    8  A    between atoms: C_27  and  O_28 
REMARK    9  A    between atoms: C_30  and  O_31 
REMARK   10  A    between atoms: C_34  and  O_35 
ROOT
HETATM    1  O   UNK N   1      32.767  42.808  56.642  0.00  0.00    -0.287 OA
HETATM    2  C   UNK N   1      31.593  43.013  56.898  0.00  0.00     0.190 A 
HETATM    3  C   UNK N   1      30.572  42.645  55.998  0.00  0.00     0.081 A 
HETATM    4  C   UNK N   1      29.239  42.929  56.364  0.00  0.00     0.095 A 
HETATM    5  O   UNK N   1      28.966  43.530  57.516  0.00  0.00    -0.309 OA
HETATM    6  C   UNK N   1      29.899  43.869  58.401  0.00  0.00     0.090 A 
HETATM    7  C   UNK N   1      31.252  43.615  58.111  0.00  0.00     0.094 A 
HETATM    8  C   UNK N   1      28.186  42.579  55.523  0.00  0.00     0.075 A 
HETATM    9  C   UNK N   1      28.434  41.929  54.299  0.00  0.00     0.077 A 
HETATM   10  C   UNK N   1      29.752  41.646  53.928  0.00  0.00     0.074 A 
HETATM   11  C   UNK N   1      30.827  42.006  54.759  0.00  0.00     0.085 A 
ENDROOT
BRANCH   9  12
HETATM   12  O   UNK N   1      27.428  41.575  53.456  0.00  0.00    -0.318 OA
BRANCH  12  13
HETATM   13  C   UNK N   1      27.590  40.771  52.339  0.00  0.00     0.298 C 
HETATM   14  O   UNK N   1      26.565  39.793  52.353  0.00  0.00    -0.355 OA
HETATM   15  C   UNK N   1      25.589  40.203  51.406  0.00  0.00     0.214 C 
HETATM   16  C   UNK N   1      25.895  41.646  50.988  0.00  0.00     0.130 C 
HETATM   17  C   UNK N   1      27.404  41.553  51.041  0.00  0.00     0.212 C 
BRANCH  16  18
HETATM   18  O   UNK N   1      25.392  42.522  51.975  0.00  0.00    -0.383 OA
HETATM   19  H   UNK N   1      24.758  42.014  52.545  0.00  0.00     0.210 HD
ENDBRANCH  16  18
BRANCH  16  20
HETATM   20  C   UNK N   1      25.305  41.986  49.602  0.00  0.00     0.207 C 
BRANCH  20  21
HETATM   21  O   UNK N   1      25.904  43.132  49.058  0.00  0.00    -0.398 OA
HETATM   22  H   UNK N   1      25.183  43.649  48.614  0.00  0.00     0.209 HD
ENDBRANCH  20  21
ENDBRANCH  16  20
BRANCH  17  23
HETATM   23  O   UNK N   1      28.106  42.771  50.965  0.00  0.00    -0.387 OA
HETATM   24  H   UNK N   1      28.560  42.929  51.830  0.00  0.00     0.210 HD
ENDBRANCH  17  23
ENDBRANCH  12  13
ENDBRANCH   9  12
BRANCH  11  25
HETATM   25  O   UNK N   1      32.091  41.739  54.368  0.00  0.00    -0.360 OA
HETATM   26  H   UNK N   1      32.282  41.250  53.555  0.00  0.00     0.217 HD
ENDBRANCH  11  25
BRANCH   6  27
HETATM   27  C   UNK N   1      29.462  44.502  59.676  0.00  0.00     0.001 A 
HETATM   28  C   UNK N   1      30.354  45.340  60.368  0.00  0.00     0.053 A 
HETATM   29  C   UNK N   1      29.974  45.956  61.569  0.00  0.00     0.099 A 
HETATM   30  C   UNK N   1      28.684  45.767  62.080  0.00  0.00     0.101 A 
HETATM   31  C   UNK N   1      27.782  44.935  61.385  0.00  0.00     0.040 A 
HETATM   32  C   UNK N   1      28.172  44.302  60.203  0.00  0.00     0.017 A 
BRANCH  29  33
HETATM   33  O   UNK N   1      30.848  46.737  62.238  0.00  0.00    -0.358 OA
HETATM   34  H   UNK N   1      30.987  47.667  62.004  0.00  0.00     0.218 HD
ENDBRANCH  29  33
BRANCH  30  35
HETATM   35  O   UNK N   1      28.339  46.397  63.236  0.00  0.00    -0.353 OA
HETATM   36  C   UNK N   1      28.320  45.812  64.485  0.00  0.00     0.210 C 
ENDBRANCH  30  35
ENDBRANCH   6  27
TORSDOF 10
ENDMDL
MODEL 9
REMARK VINA RESULT:      -5.0     13.487     16.016
REMARK  10 active torsions:
REMARK  status: ('A' for Active; 'I' for Inactive)
REMARK    1  A    between atoms: C_6  and  C_8 
REMARK    2  A    between atoms: C_10  and  O_11 
REMARK    3  A    between atoms: C_13  and  O_14 
REMARK    4  A    between atoms: C_19  and  O_20 
REMARK    5  A    between atoms: O_20  and  C_21 
REMARK    6  A    between atoms: C_24  and  O_25 
REMARK    7  A    between atoms: C_24  and  C_30 
REMARK    8  A    between atoms: C_27  and  O_28 
REMARK    9  A    between atoms: C_30  and  O_31 
REMARK   10  A    between atoms: C_34  and  O_35 
ROOT
HETATM    1  O   UNK N   1      32.770  43.003  57.067  0.00  0.00    -0.287 OA
HETATM    2  C   UNK N   1      31.558  43.110  57.138  0.00  0.00     0.190 A 
HETATM    3  C   UNK N   1      30.720  42.655  56.098  0.00  0.00     0.081 A 
HETATM    4  C   UNK N   1      29.328  42.829  56.252  0.00  0.00     0.095 A 
HETATM    5  O   UNK N   1      28.833  43.409  57.340  0.00  0.00    -0.309 OA
HETATM    6  C   UNK N   1      29.589  43.827  58.352  0.00  0.00     0.090 A 
HETATM    7  C   UNK N   1      30.987  43.686  58.274  0.00  0.00     0.094 A 
HETATM    8  C   UNK N   1      28.448  42.390  55.266  0.00  0.00     0.075 A 
HETATM    9  C   UNK N   1      28.933  41.759  54.105  0.00  0.00     0.077 A 
HETATM   10  C   UNK N   1      30.311  41.586  53.944  0.00  0.00     0.074 A 
HETATM   11  C   UNK N   1      31.213  42.036  54.923  0.00  0.00     0.085 A 
ENDROOT
BRANCH   9  12
HETATM   12  O   UNK N   1      28.100  41.320  53.124  0.00  0.00    -0.318 OA
BRANCH  12  13
HETATM   13  C   UNK N   1      26.800  41.766  52.945  0.00  0.00     0.298 C 
HETATM   14  O   UNK N   1      26.860  43.067  52.387  0.00  0.00    -0.355 OA
HETATM   15  C   UNK N   1      26.569  42.937  51.003  0.00  0.00     0.214 C 
HETATM   16  C   UNK N   1      26.603  41.449  50.637  0.00  0.00     0.130 C 
HETATM   17  C   UNK N   1      26.039  40.912  51.934  0.00  0.00     0.212 C 
BRANCH  16  18
HETATM   18  O   UNK N   1      27.947  41.058  50.452  0.00  0.00    -0.383 OA
HETATM   19  H   UNK N   1      28.062  40.784  49.505  0.00  0.00     0.210 HD
ENDBRANCH  16  18
BRANCH  16  20
HETATM   20  C   UNK N   1      25.765  41.141  49.377  0.00  0.00     0.207 C 
BRANCH  20  21
HETATM   21  O   UNK N   1      25.129  39.895  49.477  0.00  0.00    -0.398 OA
HETATM   22  H   UNK N   1      25.112  39.659  50.441  0.00  0.00     0.209 HD
ENDBRANCH  20  21
ENDBRANCH  16  20
BRANCH  17  23
HETATM   23  O   UNK N   1      26.135  39.520  52.126  0.00  0.00    -0.387 OA
HETATM   24  H   UNK N   1      25.279  39.104  51.854  0.00  0.00     0.210 HD
ENDBRANCH  17  23
ENDBRANCH  12  13
ENDBRANCH   9  12
BRANCH  11  25
HETATM   25  O   UNK N   1      32.540  41.874  54.733  0.00  0.00    -0.360 OA
HETATM   26  H   UNK N   1      33.022  41.124  55.110  0.00  0.00     0.217 HD
ENDBRANCH  11  25
BRANCH   6  27
HETATM   27  C   UNK N   1      28.912  44.425  59.534  0.00  0.00     0.001 A 
HETATM   28  C   UNK N   1      27.700  43.872  59.984  0.00  0.00     0.053 A 
HETATM   29  C   UNK N   1      27.037  44.406  61.098  0.00  0.00     0.099 A 
HETATM   30  C   UNK N   1      27.593  45.484  61.798  0.00  0.00     0.101 A 
HETATM   31  C   UNK N   1      28.813  46.036  61.357  0.00  0.00     0.040 A 
HETATM   32  C   UNK N   1      29.459  45.519  60.233  0.00  0.00     0.017 A 
BRANCH  29  33
HETATM   33  O   UNK N   1      25.860  43.884  61.503  0.00  0.00    -0.358 OA
HETATM   34  H   UNK N   1      25.810  43.218  62.205  0.00  0.00     0.218 HD
ENDBRANCH  29  33
BRANCH  30  35
HETATM   35  O   UNK N   1      26.935  45.965  62.888  0.00  0.00    -0.353 OA
HETATM   36  C   UNK N   1      27.366  45.847  64.193  0.00  0.00     0.210 C 
ENDBRANCH  30  35
ENDBRANCH   6  27
TORSDOF 10
ENDMDL
