MODEL 1
REMARK VINA RESULT:      -6.1      0.000      0.000
REMARK  7 active torsions:
REMARK  status: ('A' for Active; 'I' for Inactive)
REMARK    1  A    between atoms: C_2  and  O_3 
REMARK    2  A    between atoms: O_3  and  C_4 
REMARK    3  A    between atoms: C_5  and  C_6 
REMARK    4  A    between atoms: C_6  and  O_7 
REMARK    5  A    between atoms: C_13  and  O_14 
REMARK    6  A    between atoms: C_18  and  C_19 
REMARK    7  A    between atoms: C_19  and  O_20 
ROOT
HETATM    1  C   UNK N   1      46.450  57.861  39.025  0.00  0.00     0.142 C 
HETATM    2  C   UNK N   1      47.249  56.529  38.816  0.00  0.00     0.009 C 
HETATM    3  C   UNK N   1      48.330  56.417  39.992  0.00  0.00     0.009 C 
HETATM    4  C   UNK N   1      49.237  57.679  40.267  0.00  0.00    -0.035 C 
HETATM    5  C   UNK N   1      50.065  57.474  41.638  0.00  0.00     0.009 C 
HETATM    6  C   UNK N   1      50.170  55.968  42.133  0.00  0.00     0.009 C 
HETATM    7  C   UNK N   1      50.367  55.038  40.929  0.00  0.00     0.131 C 
HETATM    8  C   UNK N   1      49.152  55.084  39.975  0.00  0.00     0.039 C 
HETATM    9  C   UNK N   1      49.045  55.569  43.068  0.00  0.00    -0.009 C 
HETATM   10  C   UNK N   1      49.351  55.916  44.322  0.00  0.00    -0.055 C 
HETATM   11  C   UNK N   1      50.691  56.590  44.369  0.00  0.00     0.017 C 
HETATM   12  C   UNK N   1      51.329  55.912  43.153  0.00  0.00     0.025 C 
HETATM   13  C   UNK N   1      50.564  58.107  44.078  0.00  0.00     0.009 C 
HETATM   14  C   UNK N   1      49.676  58.388  42.842  0.00  0.00     0.007 C 
HETATM   15  C   UNK N   1      48.308  58.931  40.356  0.00  0.00     0.012 C 
HETATM   16  C   UNK N   1      47.367  59.089  39.158  0.00  0.00     0.034 C 
HETATM   17  C   UNK N   1      50.282  57.931  39.136  0.00  0.00     0.016 C 
HETATM   18  C   UNK N   1      47.836  56.483  37.372  0.00  0.00     0.020 C 
ENDROOT
BRANCH   1  19
HETATM   19  O   UNK N   1      45.579  58.078  37.967  0.00  0.00    -0.315 OA
BRANCH  19  20
HETATM   20  C   UNK N   1      44.253  58.350  38.099  0.00  0.00     0.255 C 
HETATM   21  O   UNK N   1      43.859  59.222  38.853  0.00  0.00    -0.266 OA
HETATM   22  C   UNK N   1      43.273  57.571  37.279  0.00  0.00     0.126 C 
ENDBRANCH  19  20
ENDBRANCH   1  19
BRANCH   2  23
HETATM   23  C   UNK N   1      46.220  55.354  38.904  0.00  0.00     0.176 C 
BRANCH  23  24
HETATM   24  O   UNK N   1      46.273  54.525  37.773  0.00  0.00    -0.400 OA
HETATM   25  H   UNK N   1      46.071  53.606  38.087  0.00  0.00     0.209 HD
ENDBRANCH  23  24
ENDBRANCH   2  23
BRANCH   7  26
HETATM   26  O   UNK N   1      50.588  53.703  41.317  0.00  0.00    -0.394 OA
HETATM   27  H   UNK N   1      51.546  53.498  41.155  0.00  0.00     0.210 HD
ENDBRANCH   7  26
BRANCH  10  28
HETATM   28  C   UNK N   1      48.486  55.660  45.523  0.00  0.00     0.198 C 
BRANCH  28  29
HETATM   29  O   UNK N   1      47.167  56.055  45.260  0.00  0.00    -0.397 OA
HETATM   30  H   UNK N   1      46.591  55.259  45.404  0.00  0.00     0.209 HD
ENDBRANCH  28  29
ENDBRANCH  10  28
TORSDOF 7
ENDMDL
MODEL 2
REMARK VINA RESULT:      -5.7     13.377     16.728
REMARK  7 active torsions:
REMARK  status: ('A' for Active; 'I' for Inactive)
REMARK    1  A    between atoms: C_2  and  O_3 
REMARK    2  A    between atoms: O_3  and  C_4 
REMARK    3  A    between atoms: C_5  and  C_6 
REMARK    4  A    between atoms: C_6  and  O_7 
REMARK    5  A    between atoms: C_13  and  O_14 
REMARK    6  A    between atoms: C_18  and  C_19 
REMARK    7  A    between atoms: C_19  and  O_20 
ROOT
HETATM    1  C   UNK N   1      40.332  44.220  50.967  0.00  0.00     0.142 C 
HETATM    2  C   UNK N   1      41.682  44.891  50.539  0.00  0.00     0.009 C 
HETATM    3  C   UNK N   1      41.424  45.679  49.169  0.00  0.00     0.009 C 
HETATM    4  C   UNK N   1      40.694  44.898  48.009  0.00  0.00    -0.035 C 
HETATM    5  C   UNK N   1      40.291  45.921  46.826  0.00  0.00     0.009 C 
HETATM    6  C   UNK N   1      41.082  47.298  46.839  0.00  0.00     0.009 C 
HETATM    7  C   UNK N   1      42.546  47.054  47.225  0.00  0.00     0.131 C 
HETATM    8  C   UNK N   1      42.665  46.486  48.657  0.00  0.00     0.039 C 
HETATM    9  C   UNK N   1      40.383  48.378  47.644  0.00  0.00    -0.009 C 
HETATM   10  C   UNK N   1      39.478  48.999  46.882  0.00  0.00    -0.055 C 
HETATM   11  C   UNK N   1      39.456  48.409  45.503  0.00  0.00     0.017 C 
HETATM   12  C   UNK N   1      40.909  47.928  45.438  0.00  0.00     0.025 C 
HETATM   13  C   UNK N   1      38.524  47.171  45.441  0.00  0.00     0.009 C 
HETATM   14  C   UNK N   1      38.769  46.201  46.620  0.00  0.00     0.007 C 
HETATM   15  C   UNK N   1      39.427  44.213  48.611  0.00  0.00     0.012 C 
HETATM   16  C   UNK N   1      39.716  43.359  49.849  0.00  0.00     0.034 C 
HETATM   17  C   UNK N   1      41.587  43.790  47.370  0.00  0.00     0.016 C 
HETATM   18  C   UNK N   1      42.813  43.818  50.482  0.00  0.00     0.020 C 
ENDROOT
BRANCH   1  19
HETATM   19  O   UNK N   1      40.518  43.418  52.084  0.00  0.00    -0.315 OA
BRANCH  19  20
HETATM   20  C   UNK N   1      39.744  43.455  53.201  0.00  0.00     0.255 C 
HETATM   21  O   UNK N   1      39.683  44.455  53.894  0.00  0.00    -0.266 OA
HETATM   22  C   UNK N   1      38.942  42.245  53.562  0.00  0.00     0.126 C 
ENDBRANCH  19  20
ENDBRANCH   1  19
BRANCH   2  23
HETATM   23  C   UNK N   1      42.084  45.886  51.677  0.00  0.00     0.176 C 
BRANCH  23  24
HETATM   24  O   UNK N   1      42.461  45.216  52.851  0.00  0.00    -0.400 OA
HETATM   25  H   UNK N   1      42.179  44.272  52.739  0.00  0.00     0.209 HD
ENDBRANCH  23  24
ENDBRANCH   2  23
BRANCH   7  26
HETATM   26  O   UNK N   1      43.324  48.223  47.134  0.00  0.00    -0.394 OA
HETATM   27  H   UNK N   1      44.265  47.947  46.986  0.00  0.00     0.210 HD
ENDBRANCH   7  26
BRANCH  10  28
HETATM   28  C   UNK N   1      38.609  50.139  47.332  0.00  0.00     0.198 C 
BRANCH  28  29
HETATM   29  O   UNK N   1      38.177  50.882  46.225  0.00  0.00    -0.397 OA
HETATM   30  H   UNK N   1      38.932  51.469  45.957  0.00  0.00     0.209 HD
ENDBRANCH  28  29
ENDBRANCH  10  28
TORSDOF 7
ENDMDL
MODEL 3
REMARK VINA RESULT:      -5.5     26.843     29.191
REMARK  7 active torsions:
REMARK  status: ('A' for Active; 'I' for Inactive)
REMARK    1  A    between atoms: C_2  and  O_3 
REMARK    2  A    between atoms: O_3  and  C_4 
REMARK    3  A    between atoms: C_5  and  C_6 
REMARK    4  A    between atoms: C_6  and  O_7 
REMARK    5  A    between atoms: C_13  and  O_14 
REMARK    6  A    between atoms: C_18  and  C_19 
REMARK    7  A    between atoms: C_19  and  O_20 
ROOT
HETATM    1  C   UNK N   1      29.537  39.366  55.597  0.00  0.00     0.142 C 
HETATM    2  C   UNK N   1      29.165  40.873  55.387  0.00  0.00     0.009 C 
HETATM    3  C   UNK N   1      29.627  41.677  56.693  0.00  0.00     0.009 C 
HETATM    4  C   UNK N   1      29.198  41.093  58.095  0.00  0.00    -0.035 C 
HETATM    5  C   UNK N   1      29.968  41.879  59.277  0.00  0.00     0.009 C 
HETATM    6  C   UNK N   1      30.571  43.287  58.858  0.00  0.00     0.009 C 
HETATM    7  C   UNK N   1      29.599  44.009  57.915  0.00  0.00     0.131 C 
HETATM    8  C   UNK N   1      29.404  43.225  56.598  0.00  0.00     0.039 C 
HETATM    9  C   UNK N   1      31.999  43.197  58.353  0.00  0.00    -0.009 C 
HETATM   10  C   UNK N   1      32.849  43.233  59.383  0.00  0.00    -0.055 C 
HETATM   11  C   UNK N   1      32.100  43.335  60.680  0.00  0.00     0.017 C 
HETATM   12  C   UNK N   1      30.853  44.060  60.165  0.00  0.00     0.025 C 
HETATM   13  C   UNK N   1      31.679  41.935  61.194  0.00  0.00     0.009 C 
HETATM   14  C   UNK N   1      31.041  41.075  60.077  0.00  0.00     0.007 C 
HETATM   15  C   UNK N   1      29.549  39.572  58.112  0.00  0.00     0.012 C 
HETATM   16  C   UNK N   1      28.989  38.795  56.916  0.00  0.00     0.034 C 
HETATM   17  C   UNK N   1      27.669  41.241  58.370  0.00  0.00     0.016 C 
HETATM   18  C   UNK N   1      27.651  41.001  55.034  0.00  0.00     0.020 C 
ENDROOT
BRANCH   1  19
HETATM   19  O   UNK N   1      29.052  38.593  54.552  0.00  0.00    -0.315 OA
BRANCH  19  20
HETATM   20  C   UNK N   1      29.273  37.259  54.406  0.00  0.00     0.255 C 
HETATM   21  O   UNK N   1      28.357  36.490  54.173  0.00  0.00    -0.266 OA
HETATM   22  C   UNK N   1      30.673  36.745  54.515  0.00  0.00     0.126 C 
ENDBRANCH  19  20
ENDBRANCH   1  19
BRANCH   2  23
HETATM   23  C   UNK N   1      29.948  41.373  54.129  0.00  0.00     0.176 C 
BRANCH  23  24
HETATM   24  O   UNK N   1      31.332  41.421  54.358  0.00  0.00    -0.400 OA
HETATM   25  H   UNK N   1      31.732  40.692  53.817  0.00  0.00     0.209 HD
ENDBRANCH  23  24
ENDBRANCH   2  23
BRANCH   7  26
HETATM   26  O   UNK N   1      30.026  45.314  57.608  0.00  0.00    -0.394 OA
HETATM   27  H   UNK N   1      30.606  45.624  58.351  0.00  0.00     0.210 HD
ENDBRANCH   7  26
BRANCH  10  28
HETATM   28  C   UNK N   1      34.346  43.188  59.268  0.00  0.00     0.198 C 
BRANCH  28  29
HETATM   29  O   UNK N   1      34.734  42.127  58.439  0.00  0.00    -0.397 OA
HETATM   30  H   UNK N   1      34.085  42.092  57.688  0.00  0.00     0.209 HD
ENDBRANCH  28  29
ENDBRANCH  10  28
TORSDOF 7
ENDMDL
MODEL 4
REMARK VINA RESULT:      -5.3     17.369     20.875
REMARK  7 active torsions:
REMARK  status: ('A' for Active; 'I' for Inactive)
REMARK    1  A    between atoms: C_2  and  O_3 
REMARK    2  A    between atoms: O_3  and  C_4 
REMARK    3  A    between atoms: C_5  and  C_6 
REMARK    4  A    between atoms: C_6  and  O_7 
REMARK    5  A    between atoms: C_13  and  O_14 
REMARK    6  A    between atoms: C_18  and  C_19 
REMARK    7  A    between atoms: C_19  and  O_20 
ROOT
HETATM    1  C   UNK N   1      29.886  53.201  40.629  0.00  0.00     0.142 C 
HETATM    2  C   UNK N   1      30.350  54.687  40.451  0.00  0.00     0.009 C 
HETATM    3  C   UNK N   1      29.046  55.615  40.496  0.00  0.00     0.009 C 
HETATM    4  C   UNK N   1      27.830  55.203  39.579  0.00  0.00    -0.035 C 
HETATM    5  C   UNK N   1      26.533  56.090  39.953  0.00  0.00     0.009 C 
HETATM    6  C   UNK N   1      26.848  57.424  40.755  0.00  0.00     0.009 C 
HETATM    7  C   UNK N   1      28.130  58.067  40.211  0.00  0.00     0.131 C 
HETATM    8  C   UNK N   1      29.356  57.149  40.423  0.00  0.00     0.039 C 
HETATM    9  C   UNK N   1      26.820  57.235  42.260  0.00  0.00    -0.009 C 
HETATM   10  C   UNK N   1      25.568  57.358  42.710  0.00  0.00    -0.055 C 
HETATM   11  C   UNK N   1      24.624  57.626  41.575  0.00  0.00     0.017 C 
HETATM   12  C   UNK N   1      25.602  58.328  40.627  0.00  0.00     0.025 C 
HETATM   13  C   UNK N   1      24.159  56.305  40.912  0.00  0.00     0.009 C 
HETATM   14  C   UNK N   1      25.341  55.347  40.634  0.00  0.00     0.007 C 
HETATM   15  C   UNK N   1      27.551  53.683  39.801  0.00  0.00     0.012 C 
HETATM   16  C   UNK N   1      28.789  52.797  39.629  0.00  0.00     0.034 C 
HETATM   17  C   UNK N   1      28.113  55.427  38.061  0.00  0.00     0.016 C 
HETATM   18  C   UNK N   1      31.214  54.821  39.159  0.00  0.00     0.020 C 
ENDROOT
BRANCH   1  19
HETATM   19  O   UNK N   1      30.958  52.333  40.477  0.00  0.00    -0.315 OA
BRANCH  19  20
HETATM   20  C   UNK N   1      31.253  51.310  41.323  0.00  0.00     0.255 C 
HETATM   21  O   UNK N   1      31.798  51.514  42.393  0.00  0.00    -0.266 OA
HETATM   22  C   UNK N   1      30.876  49.917  40.928  0.00  0.00     0.126 C 
ENDBRANCH  19  20
ENDBRANCH   1  19
BRANCH   2  23
HETATM   23  C   UNK N   1      31.302  55.021  41.647  0.00  0.00     0.176 C 
BRANCH  23  24
HETATM   24  O   UNK N   1      30.925  54.350  42.820  0.00  0.00    -0.400 OA
HETATM   25  H   UNK N   1      31.061  54.989  43.566  0.00  0.00     0.209 HD
ENDBRANCH  23  24
ENDBRANCH   2  23
BRANCH   7  26
HETATM   26  O   UNK N   1      28.393  59.317  40.802  0.00  0.00    -0.394 OA
HETATM   27  H   UNK N   1      29.360  59.348  41.023  0.00  0.00     0.210 HD
ENDBRANCH   7  26
BRANCH  10  28
HETATM   28  C   UNK N   1      25.156  57.255  44.151  0.00  0.00     0.198 C 
BRANCH  28  29
HETATM   29  O   UNK N   1      25.513  56.002  44.666  0.00  0.00    -0.397 OA
HETATM   30  H   UNK N   1      26.209  56.159  45.357  0.00  0.00     0.209 HD
ENDBRANCH  28  29
ENDBRANCH  10  28
TORSDOF 7
ENDMDL
MODEL 5
REMARK VINA RESULT:      -5.1     25.258     28.161
REMARK  7 active torsions:
REMARK  status: ('A' for Active; 'I' for Inactive)
REMARK    1  A    between atoms: C_2  and  O_3 
REMARK    2  A    between atoms: O_3  and  C_4 
REMARK    3  A    between atoms: C_5  and  C_6 
REMARK    4  A    between atoms: C_6  and  O_7 
REMARK    5  A    between atoms: C_13  and  O_14 
REMARK    6  A    between atoms: C_18  and  C_19 
REMARK    7  A    between atoms: C_19  and  O_20 
ROOT
HETATM    1  C   UNK N   1      30.096  47.798  58.654  0.00  0.00     0.142 C 
HETATM    2  C   UNK N   1      29.369  46.983  59.777  0.00  0.00     0.009 C 
HETATM    3  C   UNK N   1      30.169  45.610  59.980  0.00  0.00     0.009 C 
HETATM    4  C   UNK N   1      30.509  44.770  58.689  0.00  0.00    -0.035 C 
HETATM    5  C   UNK N   1      31.532  43.577  59.062  0.00  0.00     0.009 C 
HETATM    6  C   UNK N   1      31.595  43.214  60.606  0.00  0.00     0.009 C 
HETATM    7  C   UNK N   1      30.189  43.285  61.215  0.00  0.00     0.131 C 
HETATM    8  C   UNK N   1      29.615  44.718  61.143  0.00  0.00     0.039 C 
HETATM    9  C   UNK N   1      32.655  43.995  61.359  0.00  0.00    -0.009 C 
HETATM   10  C   UNK N   1      33.837  43.380  61.250  0.00  0.00    -0.055 C 
HETATM   11  C   UNK N   1      33.710  42.141  60.414  0.00  0.00     0.017 C 
HETATM   12  C   UNK N   1      32.243  41.815  60.711  0.00  0.00     0.025 C 
HETATM   13  C   UNK N   1      33.845  42.469  58.905  0.00  0.00     0.009 C 
HETATM   14  C   UNK N   1      32.983  43.687  58.497  0.00  0.00     0.007 C 
HETATM   15  C   UNK N   1      31.138  45.737  57.636  0.00  0.00     0.012 C 
HETATM   16  C   UNK N   1      30.293  46.985  57.362  0.00  0.00     0.034 C 
HETATM   17  C   UNK N   1      29.250  44.108  58.048  0.00  0.00     0.016 C 
HETATM   18  C   UNK N   1      27.859  46.821  59.423  0.00  0.00     0.020 C 
ENDROOT
BRANCH   1  19
HETATM   19  O   UNK N   1      29.380  48.945  58.343  0.00  0.00    -0.315 OA
BRANCH  19  20
HETATM   20  C   UNK N   1      29.146  49.394  57.081  0.00  0.00     0.255 C 
HETATM   21  O   UNK N   1      28.127  49.095  56.484  0.00  0.00    -0.266 OA
HETATM   22  C   UNK N   1      30.156  50.290  56.436  0.00  0.00     0.126 C 
ENDBRANCH  19  20
ENDBRANCH   1  19
BRANCH   2  23
HETATM   23  C   UNK N   1      29.420  47.845  61.081  0.00  0.00     0.176 C 
BRANCH  23  24
HETATM   24  O   UNK N   1      28.508  48.911  61.040  0.00  0.00    -0.400 OA
HETATM   25  H   UNK N   1      28.787  49.548  61.747  0.00  0.00     0.209 HD
ENDBRANCH  23  24
ENDBRANCH   2  23
BRANCH   7  26
HETATM   26  O   UNK N   1      30.166  42.854  62.555  0.00  0.00    -0.394 OA
HETATM   27  H   UNK N   1      30.318  43.649  63.129  0.00  0.00     0.210 HD
ENDBRANCH   7  26
BRANCH  10  28
HETATM   28  C   UNK N   1      35.115  43.850  61.884  0.00  0.00     0.198 C 
BRANCH  28  29
HETATM   29  O   UNK N   1      36.078  44.102  60.896  0.00  0.00    -0.397 OA
HETATM   30  H   UNK N   1      36.934  43.716  61.220  0.00  0.00     0.209 HD
ENDBRANCH  28  29
ENDBRANCH  10  28
TORSDOF 7
ENDMDL
MODEL 6
REMARK VINA RESULT:      -5.1     26.610     28.552
REMARK  7 active torsions:
REMARK  status: ('A' for Active; 'I' for Inactive)
REMARK    1  A    between atoms: C_2  and  O_3 
REMARK    2  A    between atoms: O_3  and  C_4 
REMARK    3  A    between atoms: C_5  and  C_6 
REMARK    4  A    between atoms: C_6  and  O_7 
REMARK    5  A    between atoms: C_13  and  O_14 
REMARK    6  A    between atoms: C_18  and  C_19 
REMARK    7  A    between atoms: C_19  and  O_20 
ROOT
HETATM    1  C   UNK N   1      27.970  41.863  53.641  0.00  0.00     0.142 C 
HETATM    2  C   UNK N   1      27.033  41.925  54.896  0.00  0.00     0.009 C 
HETATM    3  C   UNK N   1      27.907  42.440  56.134  0.00  0.00     0.009 C 
HETATM    4  C   UNK N   1      29.290  41.726  56.394  0.00  0.00    -0.035 C 
HETATM    5  C   UNK N   1      30.134  42.545  57.501  0.00  0.00     0.009 C 
HETATM    6  C   UNK N   1      29.273  43.539  58.393  0.00  0.00     0.009 C 
HETATM    7  C   UNK N   1      27.920  42.898  58.727  0.00  0.00     0.131 C 
HETATM    8  C   UNK N   1      27.084  42.645  57.452  0.00  0.00     0.039 C 
HETATM    9  C   UNK N   1      29.188  44.938  57.812  0.00  0.00    -0.009 C 
HETATM   10  C   UNK N   1      30.252  45.652  58.190  0.00  0.00    -0.055 C 
HETATM   11  C   UNK N   1      31.167  44.823  59.043  0.00  0.00     0.017 C 
HETATM   12  C   UNK N   1      30.123  43.873  59.639  0.00  0.00     0.025 C 
HETATM   13  C   UNK N   1      32.146  43.996  58.172  0.00  0.00     0.009 C 
HETATM   14  C   UNK N   1      31.422  43.277  57.009  0.00  0.00     0.007 C 
HETATM   15  C   UNK N   1      30.062  41.660  55.039  0.00  0.00     0.012 C 
HETATM   16  C   UNK N   1      29.249  41.047  53.894  0.00  0.00     0.034 C 
HETATM   17  C   UNK N   1      29.128  40.269  56.930  0.00  0.00     0.016 C 
HETATM   18  C   UNK N   1      26.337  40.545  55.107  0.00  0.00     0.020 C 
ENDROOT
BRANCH   1  19
HETATM   19  O   UNK N   1      27.302  41.306  52.561  0.00  0.00    -0.315 OA
BRANCH  19  20
HETATM   20  C   UNK N   1      27.498  41.659  51.262  0.00  0.00     0.255 C 
HETATM   21  O   UNK N   1      28.344  41.110  50.580  0.00  0.00    -0.266 OA
HETATM   22  C   UNK N   1      26.637  42.729  50.669  0.00  0.00     0.126 C 
ENDBRANCH  19  20
ENDBRANCH   1  19
BRANCH   2  23
HETATM   23  C   UNK N   1      25.890  42.942  54.570  0.00  0.00     0.176 C 
BRANCH  23  24
HETATM   24  O   UNK N   1      26.366  44.055  53.860  0.00  0.00    -0.400 OA
HETATM   25  H   UNK N   1      25.923  44.032  52.972  0.00  0.00     0.209 HD
ENDBRANCH  23  24
ENDBRANCH   2  23
BRANCH   7  26
HETATM   26  O   UNK N   1      27.163  43.683  59.617  0.00  0.00    -0.394 OA
HETATM   27  H   UNK N   1      27.795  44.116  60.247  0.00  0.00     0.210 HD
ENDBRANCH   7  26
BRANCH  10  28
HETATM   28  C   UNK N   1      30.500  47.088  57.826  0.00  0.00     0.198 C 
BRANCH  28  29
HETATM   29  O   UNK N   1      29.432  47.584  57.066  0.00  0.00    -0.397 OA
HETATM   30  H   UNK N   1      29.627  48.540  56.879  0.00  0.00     0.209 HD
ENDBRANCH  28  29
ENDBRANCH  10  28
TORSDOF 7
ENDMDL
MODEL 7
REMARK VINA RESULT:      -5.1     25.053     28.559
REMARK  7 active torsions:
REMARK  status: ('A' for Active; 'I' for Inactive)
REMARK    1  A    between atoms: C_2  and  O_3 
REMARK    2  A    between atoms: O_3  and  C_4 
REMARK    3  A    between atoms: C_5  and  C_6 
REMARK    4  A    between atoms: C_6  and  O_7 
REMARK    5  A    between atoms: C_13  and  O_14 
REMARK    6  A    between atoms: C_18  and  C_19 
REMARK    7  A    between atoms: C_19  and  O_20 
ROOT
HETATM    1  C   UNK N   1      30.730  44.558  59.295  0.00  0.00     0.142 C 
HETATM    2  C   UNK N   1      29.275  44.378  58.741  0.00  0.00     0.009 C 
HETATM    3  C   UNK N   1      28.621  45.833  58.602  0.00  0.00     0.009 C 
HETATM    4  C   UNK N   1      28.725  46.797  59.847  0.00  0.00    -0.035 C 
HETATM    5  C   UNK N   1      28.253  48.285  59.431  0.00  0.00     0.009 C 
HETATM    6  C   UNK N   1      27.383  48.361  58.105  0.00  0.00     0.009 C 
HETATM    7  C   UNK N   1      26.421  47.167  58.045  0.00  0.00     0.131 C 
HETATM    8  C   UNK N   1      27.188  45.828  57.969  0.00  0.00     0.039 C 
HETATM    9  C   UNK N   1      28.219  48.568  56.856  0.00  0.00    -0.009 C 
HETATM   10  C   UNK N   1      28.455  49.871  56.678  0.00  0.00    -0.055 C 
HETATM   11  C   UNK N   1      27.825  50.675  57.777  0.00  0.00     0.017 C 
HETATM   12  C   UNK N   1      26.668  49.730  58.116  0.00  0.00     0.025 C 
HETATM   13  C   UNK N   1      28.762  50.768  59.008  0.00  0.00     0.009 C 
HETATM   14  C   UNK N   1      29.354  49.391  59.392  0.00  0.00     0.007 C 
HETATM   15  C   UNK N   1      30.208  46.797  60.335  0.00  0.00     0.012 C 
HETATM   16  C   UNK N   1      30.776  45.396  60.584  0.00  0.00     0.034 C 
HETATM   17  C   UNK N   1      27.822  46.348  61.038  0.00  0.00     0.016 C 
HETATM   18  C   UNK N   1      28.484  43.381  59.643  0.00  0.00     0.020 C 
ENDROOT
BRANCH   1  19
HETATM   19  O   UNK N   1      31.309  43.324  59.554  0.00  0.00    -0.315 OA
BRANCH  19  20
HETATM   20  C   UNK N   1      32.631  43.042  59.405  0.00  0.00     0.255 C 
HETATM   21  O   UNK N   1      33.179  43.141  58.321  0.00  0.00    -0.266 OA
HETATM   22  C   UNK N   1      33.419  42.625  60.606  0.00  0.00     0.126 C 
ENDBRANCH  19  20
ENDBRANCH   1  19
BRANCH   2  23
HETATM   23  C   UNK N   1      29.395  43.695  57.339  0.00  0.00     0.176 C 
BRANCH  23  24
HETATM   24  O   UNK N   1      30.689  43.811  56.808  0.00  0.00    -0.400 OA
HETATM   25  H   UNK N   1      31.227  44.300  57.482  0.00  0.00     0.209 HD
ENDBRANCH  23  24
ENDBRANCH   2  23
BRANCH   7  26
HETATM   26  O   UNK N   1      25.540  47.247  56.950  0.00  0.00    -0.394 OA
HETATM   27  H   UNK N   1      25.022  46.402  56.919  0.00  0.00     0.210 HD
ENDBRANCH   7  26
BRANCH  10  28
HETATM   28  C   UNK N   1      29.231  50.459  55.533  0.00  0.00     0.198 C 
BRANCH  28  29
HETATM   29  O   UNK N   1      30.467  49.810  55.406  0.00  0.00    -0.397 OA
HETATM   30  H   UNK N   1      31.165  50.457  55.690  0.00  0.00     0.209 HD
ENDBRANCH  28  29
ENDBRANCH  10  28
TORSDOF 7
ENDMDL
MODEL 8
REMARK VINA RESULT:      -5.0     26.069     28.316
REMARK  7 active torsions:
REMARK  status: ('A' for Active; 'I' for Inactive)
REMARK    1  A    between atoms: C_2  and  O_3 
REMARK    2  A    between atoms: O_3  and  C_4 
REMARK    3  A    between atoms: C_5  and  C_6 
REMARK    4  A    between atoms: C_6  and  O_7 
REMARK    5  A    between atoms: C_13  and  O_14 
REMARK    6  A    between atoms: C_18  and  C_19 
REMARK    7  A    between atoms: C_19  and  O_20 
ROOT
HETATM    1  C   UNK N   1      28.146  47.852  57.534  0.00  0.00     0.142 C 
HETATM    2  C   UNK N   1      29.342  47.344  58.409  0.00  0.00     0.009 C 
HETATM    3  C   UNK N   1      29.396  45.748  58.286  0.00  0.00     0.009 C 
HETATM    4  C   UNK N   1      28.049  44.957  58.509  0.00  0.00    -0.035 C 
HETATM    5  C   UNK N   1      28.243  43.410  58.088  0.00  0.00     0.009 C 
HETATM    6  C   UNK N   1      29.754  42.926  58.012  0.00  0.00     0.009 C 
HETATM    7  C   UNK N   1      30.559  43.553  59.157  0.00  0.00     0.131 C 
HETATM    8  C   UNK N   1      30.605  45.093  59.037  0.00  0.00     0.039 C 
HETATM    9  C   UNK N   1      30.366  43.098  56.634  0.00  0.00    -0.009 C 
HETATM   10  C   UNK N   1      30.074  42.040  55.871  0.00  0.00    -0.055 C 
HETATM   11  C   UNK N   1      29.235  41.057  56.634  0.00  0.00     0.017 C 
HETATM   12  C   UNK N   1      29.731  41.381  58.046  0.00  0.00     0.025 C 
HETATM   13  C   UNK N   1      27.731  41.420  56.545  0.00  0.00     0.009 C 
HETATM   14  C   UNK N   1      27.479  42.922  56.817  0.00  0.00     0.007 C 
HETATM   15  C   UNK N   1      26.941  45.637  57.645  0.00  0.00     0.012 C 
HETATM   16  C   UNK N   1      26.820  47.147  57.872  0.00  0.00     0.034 C 
HETATM   17  C   UNK N   1      27.579  44.969  59.997  0.00  0.00     0.016 C 
HETATM   18  C   UNK N   1      29.204  47.890  59.864  0.00  0.00     0.020 C 
ENDROOT
BRANCH   1  19
HETATM   19  O   UNK N   1      27.969  49.218  57.696  0.00  0.00    -0.315 OA
BRANCH  19  20
HETATM   20  C   UNK N   1      27.643  50.081  56.696  0.00  0.00     0.255 C 
HETATM   21  O   UNK N   1      28.448  50.379  55.832  0.00  0.00    -0.266 OA
HETATM   22  C   UNK N   1      26.259  50.649  56.657  0.00  0.00     0.126 C 
ENDBRANCH  19  20
ENDBRANCH   1  19
BRANCH   2  23
HETATM   23  C   UNK N   1      30.646  47.983  57.827  0.00  0.00     0.176 C 
BRANCH  23  24
HETATM   24  O   UNK N   1      30.503  48.325  56.474  0.00  0.00    -0.400 OA
HETATM   25  H   UNK N   1      29.530  48.421  56.309  0.00  0.00     0.209 HD
ENDBRANCH  23  24
ENDBRANCH   2  23
BRANCH   7  26
HETATM   26  O   UNK N   1      31.878  43.064  59.212  0.00  0.00    -0.394 OA
HETATM   27  H   UNK N   1      32.438  43.644  58.634  0.00  0.00     0.210 HD
ENDBRANCH   7  26
BRANCH  10  28
HETATM   28  C   UNK N   1      30.529  41.848  54.453  0.00  0.00     0.198 C 
BRANCH  28  29
HETATM   29  O   UNK N   1      31.930  41.835  54.394  0.00  0.00    -0.397 OA
HETATM   30  H   UNK N   1      32.221  40.910  54.609  0.00  0.00     0.209 HD
ENDBRANCH  28  29
ENDBRANCH  10  28
TORSDOF 7
ENDMDL
MODEL 9
REMARK VINA RESULT:      -4.9      2.137      2.828
REMARK  7 active torsions:
REMARK  status: ('A' for Active; 'I' for Inactive)
REMARK    1  A    between atoms: C_2  and  O_3 
REMARK    2  A    between atoms: O_3  and  C_4 
REMARK    3  A    between atoms: C_5  and  C_6 
REMARK    4  A    between atoms: C_6  and  O_7 
REMARK    5  A    between atoms: C_13  and  O_14 
REMARK    6  A    between atoms: C_18  and  C_19 
REMARK    7  A    between atoms: C_19  and  O_20 
ROOT
HETATM    1  C   UNK N   1      49.195  57.695  39.269  0.00  0.00     0.142 C 
HETATM    2  C   UNK N   1      49.176  56.235  39.837  0.00  0.00     0.009 C 
HETATM    3  C   UNK N   1      49.554  56.310  41.391  0.00  0.00     0.009 C 
HETATM    4  C   UNK N   1      50.835  57.141  41.788  0.00  0.00    -0.035 C 
HETATM    5  C   UNK N   1      50.901  57.320  43.391  0.00  0.00     0.009 C 
HETATM    6  C   UNK N   1      50.012  56.292  44.213  0.00  0.00     0.009 C 
HETATM    7  C   UNK N   1      50.079  54.907  43.556  0.00  0.00     0.131 C 
HETATM    8  C   UNK N   1      49.486  54.930  42.129  0.00  0.00     0.039 C 
HETATM    9  C   UNK N   1      48.609  56.801  44.483  0.00  0.00    -0.009 C 
HETATM   10  C   UNK N   1      48.604  57.558  45.584  0.00  0.00    -0.055 C 
HETATM   11  C   UNK N   1      49.985  57.654  46.163  0.00  0.00     0.017 C 
HETATM   12  C   UNK N   1      50.533  56.312  45.667  0.00  0.00     0.025 C 
HETATM   13  C   UNK N   1      50.794  58.794  45.494  0.00  0.00     0.009 C 
HETATM   14  C   UNK N   1      50.676  58.760  43.952  0.00  0.00     0.007 C 
HETATM   15  C   UNK N   1      50.752  58.527  41.073  0.00  0.00     0.012 C 
HETATM   16  C   UNK N   1      50.515  58.430  39.563  0.00  0.00     0.034 C 
HETATM   17  C   UNK N   1      52.164  56.450  41.351  0.00  0.00     0.016 C 
HETATM   18  C   UNK N   1      50.098  55.318  38.976  0.00  0.00     0.020 C 
ENDROOT
BRANCH   1  19
HETATM   19  O   UNK N   1      48.996  57.686  37.896  0.00  0.00    -0.315 OA
BRANCH  19  20
HETATM   20  C   UNK N   1      48.086  58.456  37.240  0.00  0.00     0.255 C 
HETATM   21  O   UNK N   1      46.890  58.263  37.365  0.00  0.00    -0.266 OA
HETATM   22  C   UNK N   1      48.577  59.569  36.370  0.00  0.00     0.126 C 
ENDBRANCH  19  20
ENDBRANCH   1  19
BRANCH   2  23
HETATM   23  C   UNK N   1      47.723  55.686  39.652  0.00  0.00     0.176 C 
BRANCH  23  24
HETATM   24  O   UNK N   1      46.754  56.648  39.976  0.00  0.00    -0.400 OA
HETATM   25  H   UNK N   1      46.101  56.652  39.229  0.00  0.00     0.209 HD
ENDBRANCH  23  24
ENDBRANCH   2  23
BRANCH   7  26
HETATM   26  O   UNK N   1      49.408  53.926  44.311  0.00  0.00    -0.394 OA
HETATM   27  H   UNK N   1      48.557  54.324  44.631  0.00  0.00     0.210 HD
ENDBRANCH   7  26
BRANCH  10  28
HETATM   28  C   UNK N   1      47.389  58.215  46.174  0.00  0.00     0.198 C 
BRANCH  28  29
HETATM   29  O   UNK N   1      46.769  59.030  45.216  0.00  0.00    -0.397 OA
HETATM   30  H   UNK N   1      47.282  59.880  45.182  0.00  0.00     0.209 HD
ENDBRANCH  28  29
ENDBRANCH  10  28
TORSDOF 7
ENDMDL
