MODEL 1
REMARK VINA RESULT:      -5.1      0.000      0.000
REMARK  5 active torsions:
REMARK  status: ('A' for Active; 'I' for Inactive)
REMARK    1  A    between atoms: C_3  and  C_4 
REMARK    2  A    between atoms: C_4  and  O_5 
REMARK    3  A    between atoms: O_5  and  C_6 
REMARK    4  A    between atoms: C_13  and  O_14 
REMARK    5  A    between atoms: O_14  and  C_15 
ROOT
HETATM    1  O   UNK N   1      25.273  40.668  56.931  0.00  0.00    -0.297 OA
HETATM    2  C   UNK N   1      26.425  40.790  57.327  0.00  0.00     0.137 C 
HETATM    3  C   UNK N   1      27.405  41.713  56.590  0.00  0.00     0.043 C 
HETATM    4  C   UNK N   1      28.078  42.637  57.694  0.00  0.00     0.014 C 
HETATM    5  C   UNK N   1      28.724  41.858  58.952  0.00  0.00    -0.034 C 
HETATM    6  C   UNK N   1      30.289  41.921  58.805  0.00  0.00     0.005 C 
HETATM    7  C   UNK N   1      30.891  43.402  58.742  0.00  0.00    -0.005 C 
HETATM    8  C   UNK N   1      29.887  44.415  58.093  0.00  0.00     0.141 C 
HETATM    9  C   UNK N   1      29.026  43.720  57.052  0.00  0.00     0.040 C 
HETATM   10  C   UNK N   1      32.288  43.333  58.044  0.00  0.00     0.046 C 
HETATM   11  C   UNK N   1      33.169  42.915  59.190  0.00  0.00    -0.084 C 
HETATM   12  C   UNK N   1      34.444  42.548  59.044  0.00  0.00     0.014 C 
HETATM   13  C   UNK N   1      32.440  42.964  60.508  0.00  0.00     0.014 C 
HETATM   14  C   UNK N   1      31.307  43.907  60.135  0.00  0.00     0.021 C 
HETATM   15  C   UNK N   1      31.825  41.600  60.888  0.00  0.00     0.009 C 
HETATM   16  C   UNK N   1      31.169  40.949  59.661  0.00  0.00     0.007 C 
HETATM   17  C   UNK N   1      28.264  40.358  58.988  0.00  0.00     0.017 C 
HETATM   18  C   UNK N   1      26.796  40.138  58.634  0.00  0.00     0.080 C 
HETATM   19  C   UNK N   1      28.242  42.485  60.292  0.00  0.00     0.016 C 
HETATM   20  C   UNK N   1      26.602  42.591  55.585  0.00  0.00     0.026 C 
ENDROOT
BRANCH   3  21
HETATM   21  C   UNK N   1      28.441  40.899  55.742  0.00  0.00     0.196 C 
BRANCH  21  22
HETATM   22  O   UNK N   1      28.535  41.393  54.450  0.00  0.00    -0.321 OA
BRANCH  22  23
HETATM   23  C   UNK N   1      29.714  41.756  53.867  0.00  0.00     0.254 C 
HETATM   24  O   UNK N   1      29.755  42.113  52.702  0.00  0.00    -0.266 OA
HETATM   25  C   UNK N   1      30.973  41.723  54.673  0.00  0.00     0.126 C 
ENDBRANCH  22  23
ENDBRANCH  21  22
ENDBRANCH   3  21
BRANCH   8  26
HETATM   26  O   UNK N   1      30.580  45.470  57.517  0.00  0.00    -0.316 OA
BRANCH  26  27
HETATM   27  C   UNK N   1      30.398  46.785  57.817  0.00  0.00     0.255 C 
HETATM   28  O   UNK N   1      30.690  47.661  57.018  0.00  0.00    -0.266 OA
HETATM   29  C   UNK N   1      29.780  47.148  59.129  0.00  0.00     0.126 C 
ENDBRANCH  26  27
ENDBRANCH   8  26
TORSDOF 5
ENDMDL
MODEL 2
REMARK VINA RESULT:      -4.9      2.704      5.976
REMARK  5 active torsions:
REMARK  status: ('A' for Active; 'I' for Inactive)
REMARK    1  A    between atoms: C_3  and  C_4 
REMARK    2  A    between atoms: C_4  and  O_5 
REMARK    3  A    between atoms: O_5  and  C_6 
REMARK    4  A    between atoms: C_13  and  O_14 
REMARK    5  A    between atoms: O_14  and  C_15 
ROOT
HETATM    1  O   UNK N   1      30.194  41.954  57.819  0.00  0.00    -0.297 OA
HETATM    2  C   UNK N   1      29.803  42.957  58.401  0.00  0.00     0.137 C 
HETATM    3  C   UNK N   1      30.671  44.222  58.435  0.00  0.00     0.043 C 
HETATM    4  C   UNK N   1      29.732  45.430  58.002  0.00  0.00     0.014 C 
HETATM    5  C   UNK N   1      28.345  45.558  58.819  0.00  0.00    -0.034 C 
HETATM    6  C   UNK N   1      28.471  46.790  59.789  0.00  0.00     0.005 C 
HETATM    7  C   UNK N   1      28.779  48.181  59.061  0.00  0.00    -0.005 C 
HETATM    8  C   UNK N   1      29.614  47.982  57.750  0.00  0.00     0.141 C 
HETATM    9  C   UNK N   1      30.535  46.780  57.881  0.00  0.00     0.040 C 
HETATM   10  C   UNK N   1      29.427  49.147  60.105  0.00  0.00     0.046 C 
HETATM   11  C   UNK N   1      28.209  49.673  60.814  0.00  0.00    -0.084 C 
HETATM   12  C   UNK N   1      28.263  50.411  61.925  0.00  0.00     0.014 C 
HETATM   13  C   UNK N   1      26.934  49.270  60.119  0.00  0.00     0.014 C 
HETATM   14  C   UNK N   1      27.488  48.954  58.738  0.00  0.00     0.021 C 
HETATM   15  C   UNK N   1      26.333  47.973  60.704  0.00  0.00     0.009 C 
HETATM   16  C   UNK N   1      27.441  46.939  60.959  0.00  0.00     0.007 C 
HETATM   17  C   UNK N   1      28.057  44.262  59.656  0.00  0.00     0.017 C 
HETATM   18  C   UNK N   1      28.396  42.958  58.939  0.00  0.00     0.080 C 
HETATM   19  C   UNK N   1      27.145  45.711  57.840  0.00  0.00     0.016 C 
HETATM   20  C   UNK N   1      31.829  44.060  57.407  0.00  0.00     0.026 C 
ENDROOT
BRANCH   3  21
HETATM   21  C   UNK N   1      31.343  44.427  59.836  0.00  0.00     0.196 C 
BRANCH  21  22
HETATM   22  O   UNK N   1      31.587  43.214  60.461  0.00  0.00    -0.321 OA
BRANCH  22  23
HETATM   23  C   UNK N   1      32.838  42.751  60.746  0.00  0.00     0.254 C 
HETATM   24  O   UNK N   1      33.542  43.308  61.571  0.00  0.00    -0.266 OA
HETATM   25  C   UNK N   1      33.350  41.537  60.040  0.00  0.00     0.126 C 
ENDBRANCH  22  23
ENDBRANCH  21  22
ENDBRANCH   3  21
BRANCH   8  26
HETATM   26  O   UNK N   1      30.353  49.125  57.477  0.00  0.00    -0.316 OA
BRANCH  26  27
HETATM   27  C   UNK N   1      30.392  49.765  56.277  0.00  0.00     0.255 C 
HETATM   28  O   UNK N   1      31.405  49.766  55.595  0.00  0.00    -0.266 OA
HETATM   29  C   UNK N   1      29.152  50.431  55.772  0.00  0.00     0.126 C 
ENDBRANCH  26  27
ENDBRANCH   8  26
TORSDOF 5
ENDMDL
MODEL 3
REMARK VINA RESULT:      -4.7     19.262     22.151
REMARK  5 active torsions:
REMARK  status: ('A' for Active; 'I' for Inactive)
REMARK    1  A    between atoms: C_3  and  C_4 
REMARK    2  A    between atoms: C_4  and  O_5 
REMARK    3  A    between atoms: O_5  and  C_6 
REMARK    4  A    between atoms: C_13  and  O_14 
REMARK    5  A    between atoms: O_14  and  C_15 
ROOT
HETATM    1  O   UNK N   1      31.753  53.834  43.026  0.00  0.00    -0.297 OA
HETATM    2  C   UNK N   1      30.900  54.408  42.362  0.00  0.00     0.137 C 
HETATM    3  C   UNK N   1      30.306  53.737  41.116  0.00  0.00     0.043 C 
HETATM    4  C   UNK N   1      28.726  53.851  41.248  0.00  0.00     0.014 C 
HETATM    5  C   UNK N   1      28.158  55.336  41.533  0.00  0.00    -0.034 C 
HETATM    6  C   UNK N   1      27.485  55.855  40.209  0.00  0.00     0.005 C 
HETATM    7  C   UNK N   1      26.294  54.935  39.665  0.00  0.00    -0.005 C 
HETATM    8  C   UNK N   1      26.504  53.427  40.033  0.00  0.00     0.141 C 
HETATM    9  C   UNK N   1      27.985  53.091  40.083  0.00  0.00     0.040 C 
HETATM   10  C   UNK N   1      26.120  55.215  38.137  0.00  0.00     0.046 C 
HETATM   11  C   UNK N   1      25.280  56.463  38.160  0.00  0.00    -0.084 C 
HETATM   12  C   UNK N   1      25.016  57.194  37.074  0.00  0.00     0.014 C 
HETATM   13  C   UNK N   1      24.779  56.779  39.545  0.00  0.00     0.014 C 
HETATM   14  C   UNK N   1      24.925  55.408  40.186  0.00  0.00     0.021 C 
HETATM   15  C   UNK N   1      25.707  57.762  40.293  0.00  0.00     0.009 C 
HETATM   16  C   UNK N   1      27.179  57.383  40.066  0.00  0.00     0.007 C 
HETATM   17  C   UNK N   1      29.313  56.315  41.949  0.00  0.00     0.017 C 
HETATM   18  C   UNK N   1      30.349  55.707  42.890  0.00  0.00     0.080 C 
HETATM   19  C   UNK N   1      27.159  55.322  42.725  0.00  0.00     0.016 C 
HETATM   20  C   UNK N   1      30.727  52.238  41.110  0.00  0.00     0.026 C 
ENDROOT
BRANCH   3  21
HETATM   21  C   UNK N   1      30.869  54.364  39.796  0.00  0.00     0.196 C 
BRANCH  21  22
HETATM   22  O   UNK N   1      30.508  53.615  38.687  0.00  0.00    -0.321 OA
BRANCH  22  23
HETATM   23  C   UNK N   1      29.974  54.156  37.553  0.00  0.00     0.254 C 
HETATM   24  O   UNK N   1      29.595  53.447  36.636  0.00  0.00    -0.266 OA
HETATM   25  C   UNK N   1      29.846  55.641  37.439  0.00  0.00     0.126 C 
ENDBRANCH  22  23
ENDBRANCH  21  22
ENDBRANCH   3  21
BRANCH   8  26
HETATM   26  O   UNK N   1      25.859  52.616  39.110  0.00  0.00    -0.316 OA
BRANCH  26  27
HETATM   27  C   UNK N   1      25.849  51.256  39.133  0.00  0.00     0.255 C 
HETATM   28  O   UNK N   1      26.224  50.606  38.170  0.00  0.00    -0.266 OA
HETATM   29  C   UNK N   1      25.419  50.557  40.383  0.00  0.00     0.126 C 
ENDBRANCH  26  27
ENDBRANCH   8  26
TORSDOF 5
ENDMDL
MODEL 4
REMARK VINA RESULT:      -4.5      2.508      6.497
REMARK  5 active torsions:
REMARK  status: ('A' for Active; 'I' for Inactive)
REMARK    1  A    between atoms: C_3  and  C_4 
REMARK    2  A    between atoms: C_4  and  O_5 
REMARK    3  A    between atoms: O_5  and  C_6 
REMARK    4  A    between atoms: C_13  and  O_14 
REMARK    5  A    between atoms: O_14  and  C_15 
ROOT
HETATM    1  O   UNK N   1      28.589  41.401  61.507  0.00  0.00    -0.297 OA
HETATM    2  C   UNK N   1      28.529  41.639  60.308  0.00  0.00     0.137 C 
HETATM    3  C   UNK N   1      29.618  41.122  59.358  0.00  0.00     0.043 C 
HETATM    4  C   UNK N   1      28.869  40.411  58.150  0.00  0.00     0.014 C 
HETATM    5  C   UNK N   1      27.725  41.292  57.426  0.00  0.00    -0.034 C 
HETATM    6  C   UNK N   1      28.283  41.747  56.028  0.00  0.00     0.005 C 
HETATM    7  C   UNK N   1      28.709  40.546  55.059  0.00  0.00    -0.005 C 
HETATM    8  C   UNK N   1      29.210  39.297  55.862  0.00  0.00     0.141 C 
HETATM    9  C   UNK N   1      29.882  39.728  57.155  0.00  0.00     0.040 C 
HETATM   10  C   UNK N   1      29.729  41.101  54.013  0.00  0.00     0.046 C 
HETATM   11  C   UNK N   1      28.805  41.722  53.001  0.00  0.00    -0.084 C 
HETATM   12  C   UNK N   1      29.224  42.489  51.993  0.00  0.00     0.014 C 
HETATM   13  C   UNK N   1      27.363  41.371  53.265  0.00  0.00     0.014 C 
HETATM   14  C   UNK N   1      27.558  40.132  54.125  0.00  0.00     0.021 C 
HETATM   15  C   UNK N   1      26.647  42.441  54.118  0.00  0.00     0.009 C 
HETATM   16  C   UNK N   1      27.557  42.906  55.265  0.00  0.00     0.007 C 
HETATM   17  C   UNK N   1      27.359  42.558  58.279  0.00  0.00     0.017 C 
HETATM   18  C   UNK N   1      27.285  42.308  59.783  0.00  0.00     0.080 C 
HETATM   19  C   UNK N   1      26.409  40.474  57.288  0.00  0.00     0.016 C 
HETATM   20  C   UNK N   1      30.492  40.084  60.121  0.00  0.00     0.026 C 
ENDROOT
BRANCH   3  21
HETATM   21  C   UNK N   1      30.583  42.271  58.904  0.00  0.00     0.196 C 
BRANCH  21  22
HETATM   22  O   UNK N   1      31.897  41.989  59.241  0.00  0.00    -0.321 OA
BRANCH  22  23
HETATM   23  C   UNK N   1      32.953  42.772  58.875  0.00  0.00     0.254 C 
HETATM   24  O   UNK N   1      32.974  43.335  57.794  0.00  0.00    -0.266 OA
HETATM   25  C   UNK N   1      34.099  42.947  59.820  0.00  0.00     0.126 C 
ENDBRANCH  22  23
ENDBRANCH  21  22
ENDBRANCH   3  21
BRANCH   8  26
HETATM   26  O   UNK N   1      30.090  38.555  55.087  0.00  0.00    -0.316 OA
BRANCH  26  27
HETATM   27  C   UNK N   1      29.913  37.255  54.728  0.00  0.00     0.255 C 
HETATM   28  O   UNK N   1      29.139  36.946  53.836  0.00  0.00    -0.266 OA
HETATM   29  C   UNK N   1      30.724  36.199  55.408  0.00  0.00     0.126 C 
ENDBRANCH  26  27
ENDBRANCH   8  26
TORSDOF 5
ENDMDL
MODEL 5
REMARK VINA RESULT:      -4.4      2.643      5.881
REMARK  5 active torsions:
REMARK  status: ('A' for Active; 'I' for Inactive)
REMARK    1  A    between atoms: C_3  and  C_4 
REMARK    2  A    between atoms: C_4  and  O_5 
REMARK    3  A    between atoms: O_5  and  C_6 
REMARK    4  A    between atoms: C_13  and  O_14 
REMARK    5  A    between atoms: O_14  and  C_15 
ROOT
HETATM    1  O   UNK N   1      29.042  36.325  59.314  0.00  0.00    -0.297 OA
HETATM    2  C   UNK N   1      28.669  37.096  58.440  0.00  0.00     0.137 C 
HETATM    3  C   UNK N   1      28.669  38.610  58.688  0.00  0.00     0.043 C 
HETATM    4  C   UNK N   1      29.404  39.275  57.445  0.00  0.00     0.014 C 
HETATM    5  C   UNK N   1      28.841  38.844  55.994  0.00  0.00    -0.034 C 
HETATM    6  C   UNK N   1      28.038  40.062  55.408  0.00  0.00     0.005 C 
HETATM    7  C   UNK N   1      28.889  41.410  55.260  0.00  0.00    -0.005 C 
HETATM    8  C   UNK N   1      30.012  41.514  56.347  0.00  0.00     0.141 C 
HETATM    9  C   UNK N   1      29.577  40.830  57.632  0.00  0.00     0.040 C 
HETATM   10  C   UNK N   1      27.894  42.615  55.232  0.00  0.00     0.046 C 
HETATM   11  C   UNK N   1      27.464  42.609  53.791  0.00  0.00    -0.084 C 
HETATM   12  C   UNK N   1      26.468  43.359  53.315  0.00  0.00     0.014 C 
HETATM   13  C   UNK N   1      28.292  41.662  52.960  0.00  0.00     0.014 C 
HETATM   14  C   UNK N   1      29.512  41.538  53.858  0.00  0.00     0.021 C 
HETATM   15  C   UNK N   1      27.640  40.268  52.838  0.00  0.00     0.009 C 
HETATM   16  C   UNK N   1      27.076  39.822  54.196  0.00  0.00     0.007 C 
HETATM   17  C   UNK N   1      27.894  37.597  56.100  0.00  0.00     0.017 C 
HETATM   18  C   UNK N   1      28.366  36.525  57.079  0.00  0.00     0.080 C 
HETATM   19  C   UNK N   1      30.009  38.415  55.059  0.00  0.00     0.016 C 
HETATM   20  C   UNK N   1      29.470  38.901  59.991  0.00  0.00     0.026 C 
ENDROOT
BRANCH   3  21
HETATM   21  C   UNK N   1      27.220  39.158  58.923  0.00  0.00     0.196 C 
BRANCH  21  22
HETATM   22  O   UNK N   1      27.194  40.095  59.945  0.00  0.00    -0.321 OA
BRANCH  22  23
HETATM   23  C   UNK N   1      26.565  41.302  59.845  0.00  0.00     0.254 C 
HETATM   24  O   UNK N   1      26.358  41.986  60.832  0.00  0.00    -0.266 OA
HETATM   25  C   UNK N   1      26.130  41.793  58.502  0.00  0.00     0.126 C 
ENDBRANCH  22  23
ENDBRANCH  21  22
ENDBRANCH   3  21
BRANCH   8  26
HETATM   26  O   UNK N   1      30.316  42.846  56.591  0.00  0.00    -0.316 OA
BRANCH  26  27
HETATM   27  C   UNK N   1      31.572  43.368  56.640  0.00  0.00     0.255 C 
HETATM   28  O   UNK N   1      32.430  43.022  55.843  0.00  0.00    -0.266 OA
HETATM   29  C   UNK N   1      31.879  44.419  57.657  0.00  0.00     0.126 C 
ENDBRANCH  26  27
ENDBRANCH   8  26
TORSDOF 5
ENDMDL
MODEL 6
REMARK VINA RESULT:      -4.3      2.352      3.684
REMARK  5 active torsions:
REMARK  status: ('A' for Active; 'I' for Inactive)
REMARK    1  A    between atoms: C_3  and  C_4 
REMARK    2  A    between atoms: C_4  and  O_5 
REMARK    3  A    between atoms: O_5  and  C_6 
REMARK    4  A    between atoms: C_13  and  O_14 
REMARK    5  A    between atoms: O_14  and  C_15 
ROOT
HETATM    1  O   UNK N   1      26.913  38.223  54.111  0.00  0.00    -0.297 OA
HETATM    2  C   UNK N   1      27.567  39.161  54.548  0.00  0.00     0.137 C 
HETATM    3  C   UNK N   1      26.869  40.453  54.993  0.00  0.00     0.043 C 
HETATM    4  C   UNK N   1      27.433  40.801  56.438  0.00  0.00     0.014 C 
HETATM    5  C   UNK N   1      29.043  40.842  56.564  0.00  0.00    -0.034 C 
HETATM    6  C   UNK N   1      29.476  42.349  56.689  0.00  0.00     0.005 C 
HETATM    7  C   UNK N   1      28.834  43.124  57.933  0.00  0.00    -0.005 C 
HETATM    8  C   UNK N   1      27.419  42.564  58.304  0.00  0.00     0.141 C 
HETATM    9  C   UNK N   1      26.706  42.051  57.064  0.00  0.00     0.040 C 
HETATM   10  C   UNK N   1      28.868  44.656  57.624  0.00  0.00     0.046 C 
HETATM   11  C   UNK N   1      30.281  45.003  58.008  0.00  0.00    -0.084 C 
HETATM   12  C   UNK N   1      30.846  46.184  57.752  0.00  0.00     0.014 C 
HETATM   13  C   UNK N   1      30.969  43.862  58.714  0.00  0.00     0.014 C 
HETATM   14  C   UNK N   1      29.750  43.075  59.169  0.00  0.00     0.021 C 
HETATM   15  C   UNK N   1      31.779  42.977  57.742  0.00  0.00     0.009 C 
HETATM   16  C   UNK N   1      30.978  42.725  56.455  0.00  0.00     0.007 C 
HETATM   17  C   UNK N   1      29.727  40.205  55.303  0.00  0.00     0.017 C 
HETATM   18  C   UNK N   1      29.041  38.947  54.778  0.00  0.00     0.080 C 
HETATM   19  C   UNK N   1      29.519  39.999  57.781  0.00  0.00     0.016 C 
HETATM   20  C   UNK N   1      25.337  40.189  55.074  0.00  0.00     0.026 C 
ENDROOT
BRANCH   3  21
HETATM   21  C   UNK N   1      27.068  41.607  53.952  0.00  0.00     0.196 C 
BRANCH  21  22
HETATM   22  O   UNK N   1      27.169  41.111  52.661  0.00  0.00    -0.321 OA
BRANCH  22  23
HETATM   23  C   UNK N   1      28.175  41.447  51.801  0.00  0.00     0.254 C 
HETATM   24  O   UNK N   1      28.181  41.040  50.652  0.00  0.00    -0.266 OA
HETATM   25  C   UNK N   1      29.280  42.335  52.276  0.00  0.00     0.126 C 
ENDBRANCH  22  23
ENDBRANCH  21  22
ENDBRANCH   3  21
BRANCH   8  26
HETATM   26  O   UNK N   1      26.662  43.551  58.919  0.00  0.00    -0.316 OA
BRANCH  26  27
HETATM   27  C   UNK N   1      26.320  43.571  60.236  0.00  0.00     0.255 C 
HETATM   28  O   UNK N   1      25.534  42.758  60.696  0.00  0.00    -0.266 OA
HETATM   29  C   UNK N   1      26.966  44.576  61.135  0.00  0.00     0.126 C 
ENDBRANCH  26  27
ENDBRANCH   8  26
TORSDOF 5
ENDMDL
MODEL 7
REMARK VINA RESULT:      -4.3      2.652      5.823
REMARK  5 active torsions:
REMARK  status: ('A' for Active; 'I' for Inactive)
REMARK    1  A    between atoms: C_3  and  C_4 
REMARK    2  A    between atoms: C_4  and  O_5 
REMARK    3  A    between atoms: O_5  and  C_6 
REMARK    4  A    between atoms: C_13  and  O_14 
REMARK    5  A    between atoms: O_14  and  C_15 
ROOT
HETATM    1  O   UNK N   1      27.317  47.668  60.916  0.00  0.00    -0.297 OA
HETATM    2  C   UNK N   1      27.566  46.846  60.044  0.00  0.00     0.137 C 
HETATM    3  C   UNK N   1      29.016  46.589  59.612  0.00  0.00     0.043 C 
HETATM    4  C   UNK N   1      29.227  45.014  59.638  0.00  0.00     0.014 C 
HETATM    5  C   UNK N   1      28.131  44.153  58.820  0.00  0.00    -0.034 C 
HETATM    6  C   UNK N   1      28.820  43.622  57.509  0.00  0.00     0.005 C 
HETATM    7  C   UNK N   1      30.115  42.716  57.759  0.00  0.00    -0.005 C 
HETATM    8  C   UNK N   1      30.873  43.128  59.067  0.00  0.00     0.141 C 
HETATM    9  C   UNK N   1      30.720  44.618  59.326  0.00  0.00     0.040 C 
HETATM   10  C   UNK N   1      30.989  42.745  56.463  0.00  0.00     0.046 C 
HETATM   11  C   UNK N   1      30.301  41.705  55.621  0.00  0.00    -0.084 C 
HETATM   12  C   UNK N   1      30.582  41.494  54.334  0.00  0.00     0.014 C 
HETATM   13  C   UNK N   1      29.268  40.938  56.406  0.00  0.00     0.014 C 
HETATM   14  C   UNK N   1      29.762  41.220  57.817  0.00  0.00     0.021 C 
HETATM   15  C   UNK N   1      27.855  41.544  56.262  0.00  0.00     0.009 C 
HETATM   16  C   UNK N   1      27.919  43.076  56.351  0.00  0.00     0.007 C 
HETATM   17  C   UNK N   1      26.889  45.033  58.437  0.00  0.00     0.017 C 
HETATM   18  C   UNK N   1      26.434  45.995  59.531  0.00  0.00     0.080 C 
HETATM   19  C   UNK N   1      27.580  42.993  59.697  0.00  0.00     0.016 C 
HETATM   20  C   UNK N   1      29.969  47.265  60.641  0.00  0.00     0.026 C 
ENDROOT
BRANCH   3  21
HETATM   21  C   UNK N   1      29.330  47.238  58.221  0.00  0.00     0.196 C 
BRANCH  21  22
HETATM   22  O   UNK N   1      29.767  48.545  58.360  0.00  0.00    -0.321 OA
BRANCH  22  23
HETATM   23  C   UNK N   1      29.268  49.588  57.635  0.00  0.00     0.254 C 
HETATM   24  O   UNK N   1      29.084  49.488  56.434  0.00  0.00    -0.266 OA
HETATM   25  C   UNK N   1      28.936  50.871  58.327  0.00  0.00     0.126 C 
ENDBRANCH  22  23
ENDBRANCH  21  22
ENDBRANCH   3  21
BRANCH   8  26
HETATM   26  O   UNK N   1      32.217  42.795  58.964  0.00  0.00    -0.316 OA
BRANCH  26  27
HETATM   27  C   UNK N   1      32.943  42.163  59.925  0.00  0.00     0.255 C 
HETATM   28  O   UNK N   1      32.724  40.998  60.218  0.00  0.00    -0.266 OA
HETATM   29  C   UNK N   1      34.061  42.901  60.589  0.00  0.00     0.126 C 
ENDBRANCH  26  27
ENDBRANCH   8  26
TORSDOF 5
ENDMDL
MODEL 8
REMARK VINA RESULT:      -4.2     17.426     20.568
REMARK  5 active torsions:
REMARK  status: ('A' for Active; 'I' for Inactive)
REMARK    1  A    between atoms: C_3  and  C_4 
REMARK    2  A    between atoms: C_4  and  O_5 
REMARK    3  A    between atoms: O_5  and  C_6 
REMARK    4  A    between atoms: C_13  and  O_14 
REMARK    5  A    between atoms: O_14  and  C_15 
ROOT
HETATM    1  O   UNK N   1      46.032  48.323  63.175  0.00  0.00    -0.297 OA
HETATM    2  C   UNK N   1      46.692  49.157  62.570  0.00  0.00     0.137 C 
HETATM    3  C   UNK N   1      46.033  50.043  61.504  0.00  0.00     0.043 C 
HETATM    4  C   UNK N   1      46.453  51.541  61.835  0.00  0.00     0.014 C 
HETATM    5  C   UNK N   1      48.038  51.794  62.016  0.00  0.00    -0.034 C 
HETATM    6  C   UNK N   1      48.550  52.564  60.745  0.00  0.00     0.005 C 
HETATM    7  C   UNK N   1      47.824  53.965  60.479  0.00  0.00    -0.005 C 
HETATM    8  C   UNK N   1      46.343  53.963  60.991  0.00  0.00     0.141 C 
HETATM    9  C   UNK N   1      45.742  52.572  60.878  0.00  0.00     0.040 C 
HETATM   10  C   UNK N   1      47.990  54.323  58.966  0.00  0.00     0.046 C 
HETATM   11  C   UNK N   1      49.370  54.922  58.955  0.00  0.00    -0.084 C 
HETATM   12  C   UNK N   1      50.036  55.221  57.837  0.00  0.00     0.014 C 
HETATM   13  C   UNK N   1      49.900  55.140  60.349  0.00  0.00     0.014 C 
HETATM   14  C   UNK N   1      48.591  55.135  61.121  0.00  0.00     0.021 C 
HETATM   15  C   UNK N   1      50.756  53.954  60.843  0.00  0.00     0.009 C 
HETATM   16  C   UNK N   1      50.089  52.622  60.465  0.00  0.00     0.007 C 
HETATM   17  C   UNK N   1      48.817  50.438  62.154  0.00  0.00     0.017 C 
HETATM   18  C   UNK N   1      48.114  49.389  63.011  0.00  0.00     0.080 C 
HETATM   19  C   UNK N   1      48.320  52.584  63.326  0.00  0.00     0.016 C 
HETATM   20  C   UNK N   1      44.488  49.892  61.617  0.00  0.00     0.026 C 
ENDROOT
BRANCH   3  21
HETATM   21  C   UNK N   1      46.421  49.592  60.055  0.00  0.00     0.196 C 
BRANCH  21  22
HETATM   22  O   UNK N   1      46.714  48.238  60.009  0.00  0.00    -0.321 OA
BRANCH  22  23
HETATM   23  C   UNK N   1      47.740  47.714  59.277  0.00  0.00     0.254 C 
HETATM   24  O   UNK N   1      48.895  48.046  59.485  0.00  0.00    -0.266 OA
HETATM   25  C   UNK N   1      47.442  46.712  58.209  0.00  0.00     0.126 C 
ENDBRANCH  22  23
ENDBRANCH  21  22
ENDBRANCH   3  21
BRANCH   8  26
HETATM   26  O   UNK N   1      45.587  54.873  60.265  0.00  0.00    -0.316 OA
BRANCH  26  27
HETATM   27  C   UNK N   1      44.958  55.960  60.786  0.00  0.00     0.255 C 
HETATM   28  O   UNK N   1      44.277  56.692  60.084  0.00  0.00    -0.266 OA
HETATM   29  C   UNK N   1      45.066  56.225  62.254  0.00  0.00     0.126 C 
ENDBRANCH  26  27
ENDBRANCH   8  26
TORSDOF 5
ENDMDL
MODEL 9
REMARK VINA RESULT:      -4.2      2.858      6.332
REMARK  5 active torsions:
REMARK  status: ('A' for Active; 'I' for Inactive)
REMARK    1  A    between atoms: C_3  and  C_4 
REMARK    2  A    between atoms: C_4  and  O_5 
REMARK    3  A    between atoms: O_5  and  C_6 
REMARK    4  A    between atoms: C_13  and  O_14 
REMARK    5  A    between atoms: O_14  and  C_15 
ROOT
HETATM    1  O   UNK N   1      29.638  50.319  59.158  0.00  0.00    -0.297 OA
HETATM    2  C   UNK N   1      29.269  49.198  59.484  0.00  0.00     0.137 C 
HETATM    3  C   UNK N   1      29.304  48.045  58.472  0.00  0.00     0.043 C 
HETATM    4  C   UNK N   1      30.035  46.830  59.191  0.00  0.00     0.014 C 
HETATM    5  C   UNK N   1      29.444  46.422  60.637  0.00  0.00    -0.034 C 
HETATM    6  C   UNK N   1      28.658  45.070  60.471  0.00  0.00     0.005 C 
HETATM    7  C   UNK N   1      29.534  43.857  59.903  0.00  0.00    -0.005 C 
HETATM    8  C   UNK N   1      30.675  44.356  58.951  0.00  0.00     0.141 C 
HETATM    9  C   UNK N   1      30.243  45.612  58.213  0.00  0.00     0.040 C 
HETATM   10  C   UNK N   1      28.565  42.810  59.265  0.00  0.00     0.046 C 
HETATM   11  C   UNK N   1      28.115  42.047  60.482  0.00  0.00    -0.084 C 
HETATM   12  C   UNK N   1      27.128  41.148  60.465  0.00  0.00     0.014 C 
HETATM   13  C   UNK N   1      28.911  42.419  61.706  0.00  0.00     0.014 C 
HETATM   14  C   UNK N   1      30.141  43.013  61.037  0.00  0.00     0.021 C 
HETATM   15  C   UNK N   1      28.229  43.530  62.533  0.00  0.00     0.009 C 
HETATM   16  C   UNK N   1      27.675  44.622  61.604  0.00  0.00     0.007 C 
HETATM   17  C   UNK N   1      28.472  47.526  61.186  0.00  0.00     0.017 C 
HETATM   18  C   UNK N   1      28.935  48.958  60.934  0.00  0.00     0.080 C 
HETATM   19  C   UNK N   1      30.589  46.303  61.683  0.00  0.00     0.016 C 
HETATM   20  C   UNK N   1      30.128  48.497  57.231  0.00  0.00     0.026 C 
ENDROOT
BRANCH   3  21
HETATM   21  C   UNK N   1      27.870  47.689  57.949  0.00  0.00     0.196 C 
BRANCH  21  22
HETATM   22  O   UNK N   1      27.541  48.436  56.829  0.00  0.00    -0.321 OA
BRANCH  22  23
HETATM   23  C   UNK N   1      26.839  49.606  56.883  0.00  0.00     0.254 C 
HETATM   24  O   UNK N   1      27.298  50.636  56.420  0.00  0.00    -0.266 OA
HETATM   25  C   UNK N   1      25.484  49.619  57.513  0.00  0.00     0.126 C 
ENDBRANCH  22  23
ENDBRANCH  21  22
ENDBRANCH   3  21
BRANCH   8  26
HETATM   26  O   UNK N   1      31.010  43.359  58.046  0.00  0.00    -0.316 OA
BRANCH  26  27
HETATM   27  C   UNK N   1      32.267  43.099  57.595  0.00  0.00     0.255 C 
HETATM   28  O   UNK N   1      32.516  43.069  56.401  0.00  0.00    -0.266 OA
HETATM   29  C   UNK N   1      33.365  42.899  58.591  0.00  0.00     0.126 C 
ENDBRANCH  26  27
ENDBRANCH   8  26
TORSDOF 5
ENDMDL
