MODEL 1
REMARK VINA RESULT:      -5.1      0.000      0.000
REMARK  7 active torsions:
REMARK  status: ('A' for Active; 'I' for Inactive)
REMARK    1  A    between atoms: C_2  and  O_3 
REMARK    2  A    between atoms: O_3  and  C_4 
REMARK    3  A    between atoms: C_4  and  C_5 
REMARK    4  A    between atoms: C_6  and  O_7 
REMARK    5  A    between atoms: C_14  and  O_15 
REMARK    6  A    between atoms: C_22  and  C_24 
REMARK    7  A    between atoms: C_24  and  O_25 
ROOT
HETATM    1  C   UNK N   1      27.673  42.051  52.656  0.00  0.00     0.008 C 
HETATM    2  C   UNK N   1      26.638  43.223  52.569  0.00  0.00     0.128 C 
HETATM    3  C   UNK N   1      25.498  43.063  53.595  0.00  0.00     0.033 C 
HETATM    4  C   UNK N   1      26.062  43.076  55.029  0.00  0.00     0.012 C 
HETATM    5  C   UNK N   1      27.087  41.928  55.313  0.00  0.00    -0.035 C 
HETATM    6  C   UNK N   1      28.175  41.937  54.169  0.00  0.00     0.009 C 
HETATM    7  C   UNK N   1      29.305  40.870  54.399  0.00  0.00     0.039 C 
HETATM    8  C   UNK N   1      29.726  40.646  55.872  0.00  0.00     0.131 C 
HETATM    9  C   UNK N   1      29.385  41.869  56.726  0.00  0.00     0.009 C 
HETATM   10  C   UNK N   1      27.816  42.125  56.747  0.00  0.00     0.009 C 
HETATM   11  C   UNK N   1      27.537  43.468  57.502  0.00  0.00     0.007 C 
HETATM   12  C   UNK N   1      28.318  43.559  58.840  0.00  0.00     0.009 C 
HETATM   13  C   UNK N   1      29.813  43.169  58.672  0.00  0.00     0.017 C 
HETATM   14  C   UNK N   1      30.409  43.836  57.466  0.00  0.00    -0.055 C 
HETATM   15  C   UNK N   1      30.176  43.114  56.372  0.00  0.00    -0.009 C 
HETATM   16  C   UNK N   1      29.865  41.719  58.184  0.00  0.00     0.025 C 
HETATM   17  C   UNK N   1      26.279  40.596  55.369  0.00  0.00     0.016 C 
HETATM   18  C   UNK N   1      28.877  42.414  51.736  0.00  0.00     0.020 C 
ENDROOT
BRANCH   1  19
HETATM   19  C   UNK N   1      27.042  40.762  52.028  0.00  0.00     0.191 C 
BRANCH  19  20
HETATM   20  O   UNK N   1      26.949  40.875  50.656  0.00  0.00    -0.321 OA
BRANCH  20  21
HETATM   21  C   UNK N   1      25.785  40.898  49.961  0.00  0.00     0.254 C 
HETATM   22  O   UNK N   1      25.086  39.901  49.874  0.00  0.00    -0.266 OA
HETATM   23  C   UNK N   1      25.357  42.176  49.312  0.00  0.00     0.126 C 
ENDBRANCH  20  21
ENDBRANCH  19  20
ENDBRANCH   1  19
BRANCH   2  24
HETATM   24  O   UNK N   1      27.282  44.456  52.795  0.00  0.00    -0.395 OA
HETATM   25  H   UNK N   1      28.012  44.532  52.128  0.00  0.00     0.210 HD
ENDBRANCH   2  24
BRANCH   8  26
HETATM   26  O   UNK N   1      29.064  39.520  56.393  0.00  0.00    -0.394 OA
HETATM   27  H   UNK N   1      28.970  38.860  55.657  0.00  0.00     0.210 HD
ENDBRANCH   8  26
BRANCH  14  28
HETATM   28  C   UNK N   1      31.140  45.148  57.473  0.00  0.00     0.198 C 
BRANCH  28  29
HETATM   29  O   UNK N   1      32.451  45.000  56.999  0.00  0.00    -0.397 OA
HETATM   30  H   UNK N   1      32.618  44.026  56.899  0.00  0.00     0.209 HD
ENDBRANCH  28  29
ENDBRANCH  14  28
TORSDOF 7
ENDMDL
MODEL 2
REMARK VINA RESULT:      -5.0      2.903      4.310
REMARK  7 active torsions:
REMARK  status: ('A' for Active; 'I' for Inactive)
REMARK    1  A    between atoms: C_2  and  O_3 
REMARK    2  A    between atoms: O_3  and  C_4 
REMARK    3  A    between atoms: C_4  and  C_5 
REMARK    4  A    between atoms: C_6  and  O_7 
REMARK    5  A    between atoms: C_14  and  O_15 
REMARK    6  A    between atoms: C_22  and  C_24 
REMARK    7  A    between atoms: C_24  and  O_25 
ROOT
HETATM    1  C   UNK N   1      29.447  41.614  55.803  0.00  0.00     0.008 C 
HETATM    2  C   UNK N   1      28.035  41.856  55.171  0.00  0.00     0.128 C 
HETATM    3  C   UNK N   1      26.917  41.834  56.233  0.00  0.00     0.033 C 
HETATM    4  C   UNK N   1      27.138  42.956  57.266  0.00  0.00     0.012 C 
HETATM    5  C   UNK N   1      28.494  42.842  58.039  0.00  0.00    -0.035 C 
HETATM    6  C   UNK N   1      29.656  42.670  56.984  0.00  0.00     0.009 C 
HETATM    7  C   UNK N   1      31.078  42.625  57.651  0.00  0.00     0.039 C 
HETATM    8  C   UNK N   1      31.272  43.549  58.879  0.00  0.00     0.131 C 
HETATM    9  C   UNK N   1      30.270  44.704  58.853  0.00  0.00     0.009 C 
HETATM   10  C   UNK N   1      28.778  44.161  58.937  0.00  0.00     0.009 C 
HETATM   11  C   UNK N   1      27.795  45.366  58.751  0.00  0.00     0.007 C 
HETATM   12  C   UNK N   1      28.189  46.582  59.632  0.00  0.00     0.009 C 
HETATM   13  C   UNK N   1      29.703  46.915  59.524  0.00  0.00     0.017 C 
HETATM   14  C   UNK N   1      30.153  46.911  58.092  0.00  0.00    -0.055 C 
HETATM   15  C   UNK N   1      30.473  45.678  57.708  0.00  0.00    -0.009 C 
HETATM   16  C   UNK N   1      30.485  45.694  60.016  0.00  0.00     0.025 C 
HETATM   17  C   UNK N   1      28.370  41.625  59.006  0.00  0.00     0.016 C 
HETATM   18  C   UNK N   1      30.512  41.861  54.692  0.00  0.00     0.020 C 
ENDROOT
BRANCH   1  19
HETATM   19  C   UNK N   1      29.587  40.100  56.184  0.00  0.00     0.191 C 
BRANCH  19  20
HETATM   20  O   UNK N   1      29.986  39.351  55.095  0.00  0.00    -0.321 OA
BRANCH  20  21
HETATM   21  C   UNK N   1      29.452  38.155  54.745  0.00  0.00     0.254 C 
HETATM   22  O   UNK N   1      28.271  38.056  54.451  0.00  0.00    -0.266 OA
HETATM   23  C   UNK N   1      30.339  36.952  54.708  0.00  0.00     0.126 C 
ENDBRANCH  20  21
ENDBRANCH  19  20
ENDBRANCH   1  19
BRANCH   2  24
HETATM   24  O   UNK N   1      28.008  43.099  54.508  0.00  0.00    -0.395 OA
HETATM   25  H   UNK N   1      28.067  43.804  55.203  0.00  0.00     0.210 HD
ENDBRANCH   2  24
BRANCH   8  26
HETATM   26  O   UNK N   1      31.097  42.811  60.063  0.00  0.00    -0.394 OA
HETATM   27  H   UNK N   1      30.166  42.963  60.376  0.00  0.00     0.210 HD
ENDBRANCH   8  26
BRANCH  14  28
HETATM   28  C   UNK N   1      30.207  48.117  57.197  0.00  0.00     0.198 C 
BRANCH  28  29
HETATM   29  O   UNK N   1      28.959  48.366  56.608  0.00  0.00    -0.397 OA
HETATM   30  H   UNK N   1      28.322  48.560  57.343  0.00  0.00     0.209 HD
ENDBRANCH  28  29
ENDBRANCH  14  28
TORSDOF 7
ENDMDL
MODEL 3
REMARK VINA RESULT:      -4.9     16.837     20.056
REMARK  7 active torsions:
REMARK  status: ('A' for Active; 'I' for Inactive)
REMARK    1  A    between atoms: C_2  and  O_3 
REMARK    2  A    between atoms: O_3  and  C_4 
REMARK    3  A    between atoms: C_4  and  C_5 
REMARK    4  A    between atoms: C_6  and  O_7 
REMARK    5  A    between atoms: C_14  and  O_15 
REMARK    6  A    between atoms: C_22  and  C_24 
REMARK    7  A    between atoms: C_24  and  O_25 
ROOT
HETATM    1  C   UNK N   1      29.091  55.985  38.597  0.00  0.00     0.008 C 
HETATM    2  C   UNK N   1      30.375  55.362  37.951  0.00  0.00     0.128 C 
HETATM    3  C   UNK N   1      31.210  54.572  38.978  0.00  0.00     0.033 C 
HETATM    4  C   UNK N   1      30.389  53.400  39.549  0.00  0.00     0.012 C 
HETATM    5  C   UNK N   1      29.081  53.847  40.284  0.00  0.00    -0.035 C 
HETATM    6  C   UNK N   1      28.281  54.819  39.329  0.00  0.00     0.009 C 
HETATM    7  C   UNK N   1      26.905  55.268  39.939  0.00  0.00     0.039 C 
HETATM    8  C   UNK N   1      26.152  54.194  40.762  0.00  0.00     0.131 C 
HETATM    9  C   UNK N   1      26.599  52.788  40.357  0.00  0.00     0.009 C 
HETATM   10  C   UNK N   1      28.146  52.577  40.658  0.00  0.00     0.009 C 
HETATM   11  C   UNK N   1      28.583  51.187  40.085  0.00  0.00     0.007 C 
HETATM   12  C   UNK N   1      27.594  50.057  40.477  0.00  0.00     0.009 C 
HETATM   13  C   UNK N   1      26.115  50.463  40.227  0.00  0.00     0.017 C 
HETATM   14  C   UNK N   1      25.954  51.099  38.876  0.00  0.00    -0.055 C 
HETATM   15  C   UNK N   1      26.222  52.401  38.940  0.00  0.00    -0.009 C 
HETATM   16  C   UNK N   1      25.813  51.686  41.096  0.00  0.00     0.025 C 
HETATM   17  C   UNK N   1      29.514  54.529  41.616  0.00  0.00     0.016 C 
HETATM   18  C   UNK N   1      28.222  56.577  37.446  0.00  0.00     0.020 C 
ENDROOT
BRANCH   1  19
HETATM   19  C   UNK N   1      29.505  57.213  39.479  0.00  0.00     0.191 C 
BRANCH  19  20
HETATM   20  O   UNK N   1      28.634  58.268  39.297  0.00  0.00    -0.321 OA
BRANCH  20  21
HETATM   21  C   UNK N   1      27.945  58.879  40.292  0.00  0.00     0.254 C 
HETATM   22  O   UNK N   1      28.516  59.293  41.289  0.00  0.00    -0.266 OA
HETATM   23  C   UNK N   1      26.468  59.056  40.143  0.00  0.00     0.126 C 
ENDBRANCH  20  21
ENDBRANCH  19  20
ENDBRANCH   1  19
BRANCH   2  24
HETATM   24  O   UNK N   1      30.016  54.499  36.896  0.00  0.00    -0.395 OA
HETATM   25  H   UNK N   1      29.676  55.066  36.156  0.00  0.00     0.210 HD
ENDBRANCH   2  24
BRANCH   8  26
HETATM   26  O   UNK N   1      26.404  54.381  42.133  0.00  0.00    -0.394 OA
HETATM   27  H   UNK N   1      27.387  54.446  42.252  0.00  0.00     0.210 HD
ENDBRANCH   8  26
BRANCH  14  28
HETATM   28  C   UNK N   1      25.576  50.373  37.615  0.00  0.00     0.198 C 
BRANCH  28  29
HETATM   29  O   UNK N   1      25.603  48.984  37.804  0.00  0.00    -0.397 OA
HETATM   30  H   UNK N   1      26.148  48.599  37.068  0.00  0.00     0.209 HD
ENDBRANCH  28  29
ENDBRANCH  14  28
TORSDOF 7
ENDMDL
MODEL 4
REMARK VINA RESULT:      -4.8      3.890      6.442
REMARK  7 active torsions:
REMARK  status: ('A' for Active; 'I' for Inactive)
REMARK    1  A    between atoms: C_2  and  O_3 
REMARK    2  A    between atoms: O_3  and  C_4 
REMARK    3  A    between atoms: C_4  and  C_5 
REMARK    4  A    between atoms: C_6  and  O_7 
REMARK    5  A    between atoms: C_14  and  O_15 
REMARK    6  A    between atoms: C_22  and  C_24 
REMARK    7  A    between atoms: C_24  and  O_25 
ROOT
HETATM    1  C   UNK N   1      30.864  43.513  57.849  0.00  0.00     0.008 C 
HETATM    2  C   UNK N   1      30.784  45.014  57.410  0.00  0.00     0.128 C 
HETATM    3  C   UNK N   1      29.842  45.831  58.316  0.00  0.00     0.033 C 
HETATM    4  C   UNK N   1      30.356  45.822  59.769  0.00  0.00     0.012 C 
HETATM    5  C   UNK N   1      30.451  44.390  60.395  0.00  0.00    -0.035 C 
HETATM    6  C   UNK N   1      31.253  43.464  59.398  0.00  0.00     0.009 C 
HETATM    7  C   UNK N   1      31.478  42.016  59.965  0.00  0.00     0.039 C 
HETATM    8  C   UNK N   1      31.735  41.925  61.490  0.00  0.00     0.131 C 
HETATM    9  C   UNK N   1      32.271  43.252  62.030  0.00  0.00     0.009 C 
HETATM   10  C   UNK N   1      31.209  44.417  61.827  0.00  0.00     0.009 C 
HETATM   11  C   UNK N   1      31.864  45.774  62.252  0.00  0.00     0.007 C 
HETATM   12  C   UNK N   1      32.592  45.667  63.620  0.00  0.00     0.009 C 
HETATM   13  C   UNK N   1      33.506  44.414  63.699  0.00  0.00     0.017 C 
HETATM   14  C   UNK N   1      34.331  44.272  62.453  0.00  0.00    -0.055 C 
HETATM   15  C   UNK N   1      33.649  43.622  61.514  0.00  0.00    -0.009 C 
HETATM   16  C   UNK N   1      32.619  43.177  63.531  0.00  0.00     0.025 C 
HETATM   17  C   UNK N   1      28.992  43.897  60.636  0.00  0.00     0.016 C 
HETATM   18  C   UNK N   1      31.987  42.833  57.010  0.00  0.00     0.020 C 
ENDROOT
BRANCH   1  19
HETATM   19  C   UNK N   1      29.538  42.786  57.436  0.00  0.00     0.191 C 
BRANCH  19  20
HETATM   20  O   UNK N   1      29.264  42.981  56.098  0.00  0.00    -0.321 OA
BRANCH  20  21
HETATM   21  C   UNK N   1      28.803  42.021  55.258  0.00  0.00     0.254 C 
HETATM   22  O   UNK N   1      27.841  42.228  54.535  0.00  0.00    -0.266 OA
HETATM   23  C   UNK N   1      29.504  40.700  55.218  0.00  0.00     0.126 C 
ENDBRANCH  20  21
ENDBRANCH  19  20
ENDBRANCH   1  19
BRANCH   2  24
HETATM   24  O   UNK N   1      32.067  45.597  57.444  0.00  0.00    -0.395 OA
HETATM   25  H   UNK N   1      32.369  45.697  56.504  0.00  0.00     0.210 HD
ENDBRANCH   2  24
BRANCH   8  26
HETATM   26  O   UNK N   1      30.539  41.605  62.157  0.00  0.00    -0.394 OA
HETATM   27  H   UNK N   1      30.780  41.262  63.057  0.00  0.00     0.210 HD
ENDBRANCH   8  26
BRANCH  14  28
HETATM   28  C   UNK N   1      35.722  44.812  62.268  0.00  0.00     0.198 C 
BRANCH  28  29
HETATM   29  O   UNK N   1      36.329  44.265  61.129  0.00  0.00    -0.397 OA
HETATM   30  H   UNK N   1      36.427  43.290  61.289  0.00  0.00     0.209 HD
ENDBRANCH  28  29
ENDBRANCH  14  28
TORSDOF 7
ENDMDL
MODEL 5
REMARK VINA RESULT:      -4.6     13.999     16.504
REMARK  7 active torsions:
REMARK  status: ('A' for Active; 'I' for Inactive)
REMARK    1  A    between atoms: C_2  and  O_3 
REMARK    2  A    between atoms: O_3  and  C_4 
REMARK    3  A    between atoms: C_4  and  C_5 
REMARK    4  A    between atoms: C_6  and  O_7 
REMARK    5  A    between atoms: C_14  and  O_15 
REMARK    6  A    between atoms: C_22  and  C_24 
REMARK    7  A    between atoms: C_24  and  O_25 
ROOT
HETATM    1  C   UNK N   1      40.332  44.466  46.696  0.00  0.00     0.008 C 
HETATM    2  C   UNK N   1      39.052  44.266  47.577  0.00  0.00     0.128 C 
HETATM    3  C   UNK N   1      39.047  45.196  48.806  0.00  0.00     0.033 C 
HETATM    4  C   UNK N   1      39.051  46.672  48.362  0.00  0.00     0.012 C 
HETATM    5  C   UNK N   1      40.300  47.067  47.504  0.00  0.00    -0.035 C 
HETATM    6  C   UNK N   1      40.453  46.017  46.334  0.00  0.00     0.009 C 
HETATM    7  C   UNK N   1      41.634  46.366  45.359  0.00  0.00     0.039 C 
HETATM    8  C   UNK N   1      41.856  47.874  45.086  0.00  0.00     0.131 C 
HETATM    9  C   UNK N   1      40.575  48.668  45.349  0.00  0.00     0.009 C 
HETATM   10  C   UNK N   1      40.140  48.552  46.874  0.00  0.00     0.009 C 
HETATM   11  C   UNK N   1      38.749  49.249  47.053  0.00  0.00     0.007 C 
HETATM   12  C   UNK N   1      38.705  50.645  46.376  0.00  0.00     0.009 C 
HETATM   13  C   UNK N   1      39.268  50.611  44.929  0.00  0.00     0.017 C 
HETATM   14  C   UNK N   1      38.715  49.443  44.165  0.00  0.00    -0.055 C 
HETATM   15  C   UNK N   1      39.441  48.351  44.392  0.00  0.00    -0.009 C 
HETATM   16  C   UNK N   1      40.731  50.164  45.008  0.00  0.00     0.025 C 
HETATM   17  C   UNK N   1      41.528  47.086  48.464  0.00  0.00     0.016 C 
HETATM   18  C   UNK N   1      40.140  43.641  45.388  0.00  0.00     0.020 C 
ENDROOT
BRANCH   1  19
HETATM   19  C   UNK N   1      41.561  43.818  47.421  0.00  0.00     0.191 C 
BRANCH  19  20
HETATM   20  O   UNK N   1      42.606  43.621  46.542  0.00  0.00    -0.321 OA
BRANCH  20  21
HETATM   21  C   UNK N   1      42.995  42.413  46.065  0.00  0.00     0.254 C 
HETATM   22  O   UNK N   1      42.685  41.381  46.639  0.00  0.00    -0.266 OA
HETATM   23  C   UNK N   1      43.802  42.360  44.807  0.00  0.00     0.126 C 
ENDBRANCH  20  21
ENDBRANCH  19  20
ENDBRANCH   1  19
BRANCH   2  24
HETATM   24  O   UNK N   1      37.895  44.515  46.813  0.00  0.00    -0.395 OA
HETATM   25  H   UNK N   1      37.133  44.096  47.290  0.00  0.00     0.210 HD
ENDBRANCH   2  24
BRANCH   8  26
HETATM   26  O   UNK N   1      42.881  48.364  45.915  0.00  0.00    -0.394 OA
HETATM   27  H   UNK N   1      42.814  47.891  46.786  0.00  0.00     0.210 HD
ENDBRANCH   8  26
BRANCH  14  28
HETATM   28  C   UNK N   1      37.495  49.481  43.288  0.00  0.00     0.198 C 
BRANCH  28  29
HETATM   29  O   UNK N   1      37.838  49.325  41.937  0.00  0.00    -0.397 OA
HETATM   30  H   UNK N   1      37.055  49.617  41.401  0.00  0.00     0.209 HD
ENDBRANCH  28  29
ENDBRANCH  14  28
TORSDOF 7
ENDMDL
MODEL 6
REMARK VINA RESULT:      -4.5     17.559     20.390
REMARK  7 active torsions:
REMARK  status: ('A' for Active; 'I' for Inactive)
REMARK    1  A    between atoms: C_2  and  O_3 
REMARK    2  A    between atoms: O_3  and  C_4 
REMARK    3  A    between atoms: C_4  and  C_5 
REMARK    4  A    between atoms: C_6  and  O_7 
REMARK    5  A    between atoms: C_14  and  O_15 
REMARK    6  A    between atoms: C_22  and  C_24 
REMARK    7  A    between atoms: C_24  and  O_25 
ROOT
HETATM    1  C   UNK N   1      25.933  57.281  40.409  0.00  0.00     0.008 C 
HETATM    2  C   UNK N   1      25.577  57.265  38.884  0.00  0.00     0.128 C 
HETATM    3  C   UNK N   1      26.764  57.719  38.010  0.00  0.00     0.033 C 
HETATM    4  C   UNK N   1      27.961  56.765  38.195  0.00  0.00     0.012 C 
HETATM    5  C   UNK N   1      28.488  56.694  39.667  0.00  0.00    -0.035 C 
HETATM    6  C   UNK N   1      27.261  56.418  40.623  0.00  0.00     0.009 C 
HETATM    7  C   UNK N   1      27.690  56.247  42.124  0.00  0.00     0.039 C 
HETATM    8  C   UNK N   1      29.038  55.523  42.359  0.00  0.00     0.131 C 
HETATM    9  C   UNK N   1      29.395  54.639  41.163  0.00  0.00     0.009 C 
HETATM   10  C   UNK N   1      29.584  55.514  39.849  0.00  0.00     0.009 C 
HETATM   11  C   UNK N   1      29.793  54.553  38.631  0.00  0.00     0.007 C 
HETATM   12  C   UNK N   1      30.835  53.443  38.936  0.00  0.00     0.009 C 
HETATM   13  C   UNK N   1      30.578  52.761  40.307  0.00  0.00     0.017 C 
HETATM   14  C   UNK N   1      29.125  52.422  40.474  0.00  0.00    -0.055 C 
HETATM   15  C   UNK N   1      28.455  53.467  40.953  0.00  0.00    -0.009 C 
HETATM   16  C   UNK N   1      30.691  53.835  41.392  0.00  0.00     0.025 C 
HETATM   17  C   UNK N   1      29.194  58.051  39.967  0.00  0.00     0.016 C 
HETATM   18  C   UNK N   1      24.753  56.615  41.178  0.00  0.00     0.020 C 
ENDROOT
BRANCH   1  19
HETATM   19  C   UNK N   1      25.973  58.765  40.912  0.00  0.00     0.191 C 
BRANCH  19  20
HETATM   20  O   UNK N   1      25.474  58.866  42.194  0.00  0.00    -0.321 OA
BRANCH  20  21
HETATM   21  C   UNK N   1      26.140  59.415  43.239  0.00  0.00     0.254 C 
HETATM   22  O   UNK N   1      25.595  59.566  44.322  0.00  0.00    -0.266 OA
HETATM   23  C   UNK N   1      27.567  59.822  43.052  0.00  0.00     0.126 C 
ENDBRANCH  20  21
ENDBRANCH  19  20
ENDBRANCH   1  19
BRANCH   2  24
HETATM   24  O   UNK N   1      25.192  55.968  38.490  0.00  0.00    -0.395 OA
HETATM   25  H   UNK N   1      25.505  55.840  37.557  0.00  0.00     0.210 HD
ENDBRANCH   2  24
BRANCH   8  26
HETATM   26  O   UNK N   1      30.061  56.468  42.556  0.00  0.00    -0.394 OA
HETATM   27  H   UNK N   1      30.912  55.970  42.673  0.00  0.00     0.210 HD
ENDBRANCH   8  26
BRANCH  14  28
HETATM   28  C   UNK N   1      28.496  51.103  40.122  0.00  0.00     0.198 C 
BRANCH  28  29
HETATM   29  O   UNK N   1      27.712  51.209  38.964  0.00  0.00    -0.397 OA
HETATM   30  H   UNK N   1      27.174  52.039  39.050  0.00  0.00     0.209 HD
ENDBRANCH  28  29
ENDBRANCH  14  28
TORSDOF 7
ENDMDL
MODEL 7
REMARK VINA RESULT:      -4.5      5.101      8.342
REMARK  7 active torsions:
REMARK  status: ('A' for Active; 'I' for Inactive)
REMARK    1  A    between atoms: C_2  and  O_3 
REMARK    2  A    between atoms: O_3  and  C_4 
REMARK    3  A    between atoms: C_4  and  C_5 
REMARK    4  A    between atoms: C_6  and  O_7 
REMARK    5  A    between atoms: C_14  and  O_15 
REMARK    6  A    between atoms: C_22  and  C_24 
REMARK    7  A    between atoms: C_24  and  O_25 
ROOT
HETATM    1  C   UNK N   1      29.402  44.629  59.495  0.00  0.00     0.008 C 
HETATM    2  C   UNK N   1      28.755  43.915  58.260  0.00  0.00     0.128 C 
HETATM    3  C   UNK N   1      27.277  44.310  58.075  0.00  0.00     0.033 C 
HETATM    4  C   UNK N   1      27.154  45.825  57.824  0.00  0.00     0.012 C 
HETATM    5  C   UNK N   1      27.711  46.704  58.994  0.00  0.00    -0.035 C 
HETATM    6  C   UNK N   1      29.166  46.202  59.345  0.00  0.00     0.009 C 
HETATM    7  C   UNK N   1      29.854  47.071  60.458  0.00  0.00     0.039 C 
HETATM    8  C   UNK N   1      29.543  48.587  60.414  0.00  0.00     0.131 C 
HETATM    9  C   UNK N   1      29.110  49.012  59.010  0.00  0.00     0.009 C 
HETATM   10  C   UNK N   1      27.769  48.271  58.582  0.00  0.00     0.009 C 
HETATM   11  C   UNK N   1      27.457  48.620  57.088  0.00  0.00     0.007 C 
HETATM   12  C   UNK N   1      27.583  50.141  56.806  0.00  0.00     0.009 C 
HETATM   13  C   UNK N   1      28.895  50.737  57.386  0.00  0.00     0.017 C 
HETATM   14  C   UNK N   1      30.072  49.864  57.057  0.00  0.00    -0.055 C 
HETATM   15  C   UNK N   1      30.200  48.896  57.961  0.00  0.00    -0.009 C 
HETATM   16  C   UNK N   1      28.871  50.532  58.903  0.00  0.00     0.025 C 
HETATM   17  C   UNK N   1      26.718  46.561  60.186  0.00  0.00     0.016 C 
HETATM   18  C   UNK N   1      30.931  44.329  59.469  0.00  0.00     0.020 C 
ENDROOT
BRANCH   1  19
HETATM   19  C   UNK N   1      28.869  43.963  60.810  0.00  0.00     0.191 C 
BRANCH  19  20
HETATM   20  O   UNK N   1      29.912  43.600  61.637  0.00  0.00    -0.321 OA
BRANCH  20  21
HETATM   21  C   UNK N   1      29.973  42.439  62.336  0.00  0.00     0.254 C 
HETATM   22  O   UNK N   1      31.034  41.854  62.490  0.00  0.00    -0.266 OA
HETATM   23  C   UNK N   1      28.717  41.890  62.934  0.00  0.00     0.126 C 
ENDBRANCH  20  21
ENDBRANCH  19  20
ENDBRANCH   1  19
BRANCH   2  24
HETATM   24  O   UNK N   1      29.464  44.242  57.086  0.00  0.00    -0.395 OA
HETATM   25  H   UNK N   1      29.346  43.488  56.453  0.00  0.00     0.210 HD
ENDBRANCH   2  24
BRANCH   8  26
HETATM   26  O   UNK N   1      28.516  48.892  61.326  0.00  0.00    -0.394 OA
HETATM   27  H   UNK N   1      27.651  48.695  60.879  0.00  0.00     0.210 HD
ENDBRANCH   8  26
BRANCH  14  28
HETATM   28  C   UNK N   1      30.966  50.029  55.861  0.00  0.00     0.198 C 
BRANCH  28  29
HETATM   29  O   UNK N   1      32.135  50.726  56.196  0.00  0.00    -0.397 OA
HETATM   30  H   UNK N   1      32.109  51.592  55.712  0.00  0.00     0.209 HD
ENDBRANCH  28  29
ENDBRANCH  14  28
TORSDOF 7
ENDMDL
MODEL 8
REMARK VINA RESULT:      -4.5     16.041     19.371
REMARK  7 active torsions:
REMARK  status: ('A' for Active; 'I' for Inactive)
REMARK    1  A    between atoms: C_2  and  O_3 
REMARK    2  A    between atoms: O_3  and  C_4 
REMARK    3  A    between atoms: C_4  and  C_5 
REMARK    4  A    between atoms: C_6  and  O_7 
REMARK    5  A    between atoms: C_14  and  O_15 
REMARK    6  A    between atoms: C_22  and  C_24 
REMARK    7  A    between atoms: C_24  and  O_25 
ROOT
HETATM    1  C   UNK N   1      27.614  56.294  40.937  0.00  0.00     0.008 C 
HETATM    2  C   UNK N   1      26.363  55.626  41.601  0.00  0.00     0.128 C 
HETATM    3  C   UNK N   1      25.761  54.519  40.712  0.00  0.00     0.033 C 
HETATM    4  C   UNK N   1      26.791  53.397  40.482  0.00  0.00     0.012 C 
HETATM    5  C   UNK N   1      28.101  53.880  39.773  0.00  0.00    -0.035 C 
HETATM    6  C   UNK N   1      28.650  55.142  40.548  0.00  0.00     0.009 C 
HETATM    7  C   UNK N   1      30.013  55.663  39.965  0.00  0.00     0.039 C 
HETATM    8  C   UNK N   1      30.990  54.572  39.463  0.00  0.00     0.131 C 
HETATM    9  C   UNK N   1      30.695  53.229  40.134  0.00  0.00     0.009 C 
HETATM   10  C   UNK N   1      29.234  52.721  39.766  0.00  0.00     0.009 C 
HETATM   11  C   UNK N   1      28.927  51.430  40.596  0.00  0.00     0.007 C 
HETATM   12  C   UNK N   1      30.098  50.411  40.545  0.00  0.00     0.009 C 
HETATM   13  C   UNK N   1      31.471  51.086  40.815  0.00  0.00     0.017 C 
HETATM   14  C   UNK N   1      31.393  52.006  41.999  0.00  0.00    -0.055 C 
HETATM   15  C   UNK N   1      30.961  53.208  41.627  0.00  0.00    -0.009 C 
HETATM   16  C   UNK N   1      31.700  52.134  39.723  0.00  0.00     0.025 C 
HETATM   17  C   UNK N   1      27.730  54.194  38.292  0.00  0.00     0.016 C 
HETATM   18  C   UNK N   1      28.262  57.240  41.992  0.00  0.00     0.020 C 
ENDROOT
BRANCH   1  19
HETATM   19  C   UNK N   1      27.139  57.231  39.774  0.00  0.00     0.191 C 
BRANCH  19  20
HETATM   20  O   UNK N   1      27.737  58.472  39.863  0.00  0.00    -0.321 OA
BRANCH  20  21
HETATM   21  C   UNK N   1      28.682  58.935  39.009  0.00  0.00     0.254 C 
HETATM   22  O   UNK N   1      29.465  59.808  39.351  0.00  0.00    -0.266 OA
HETATM   23  C   UNK N   1      28.763  58.348  37.636  0.00  0.00     0.126 C 
ENDBRANCH  20  21
ENDBRANCH  19  20
ENDBRANCH   1  19
BRANCH   2  24
HETATM   24  O   UNK N   1      26.715  55.068  42.846  0.00  0.00    -0.395 OA
HETATM   25  H   UNK N   1      26.010  54.412  43.084  0.00  0.00     0.210 HD
ENDBRANCH   2  24
BRANCH   8  26
HETATM   26  O   UNK N   1      30.870  54.428  38.069  0.00  0.00    -0.394 OA
HETATM   27  H   UNK N   1      31.592  53.816  37.767  0.00  0.00     0.210 HD
ENDBRANCH   8  26
BRANCH  14  28
HETATM   28  C   UNK N   1      31.723  51.627  43.415  0.00  0.00     0.198 C 
BRANCH  28  29
HETATM   29  O   UNK N   1      32.158  50.296  43.494  0.00  0.00    -0.397 OA
HETATM   30  H   UNK N   1      33.094  50.313  43.822  0.00  0.00     0.209 HD
ENDBRANCH  28  29
ENDBRANCH  14  28
TORSDOF 7
ENDMDL
MODEL 9
REMARK VINA RESULT:      -4.5      4.291      7.927
REMARK  7 active torsions:
REMARK  status: ('A' for Active; 'I' for Inactive)
REMARK    1  A    between atoms: C_2  and  O_3 
REMARK    2  A    between atoms: O_3  and  C_4 
REMARK    3  A    between atoms: C_4  and  C_5 
REMARK    4  A    between atoms: C_6  and  O_7 
REMARK    5  A    between atoms: C_14  and  O_15 
REMARK    6  A    between atoms: C_22  and  C_24 
REMARK    7  A    between atoms: C_24  and  O_25 
ROOT
HETATM    1  C   UNK N   1      27.337  47.813  58.553  0.00  0.00     0.008 C 
HETATM    2  C   UNK N   1      28.130  48.760  57.591  0.00  0.00     0.128 C 
HETATM    3  C   UNK N   1      29.594  48.941  58.039  0.00  0.00     0.033 C 
HETATM    4  C   UNK N   1      30.329  47.586  58.031  0.00  0.00     0.012 C 
HETATM    5  C   UNK N   1      29.695  46.521  58.986  0.00  0.00    -0.035 C 
HETATM    6  C   UNK N   1      28.146  46.442  58.687  0.00  0.00     0.009 C 
HETATM    7  C   UNK N   1      27.421  45.340  59.540  0.00  0.00     0.039 C 
HETATM    8  C   UNK N   1      28.231  44.045  59.793  0.00  0.00     0.131 C 
HETATM    9  C   UNK N   1      29.310  43.862  58.724  0.00  0.00     0.009 C 
HETATM   10  C   UNK N   1      30.358  45.058  58.767  0.00  0.00     0.009 C 
HETATM   11  C   UNK N   1      31.344  44.904  57.561  0.00  0.00     0.007 C 
HETATM   12  C   UNK N   1      31.883  43.455  57.428  0.00  0.00     0.009 C 
HETATM   13  C   UNK N   1      30.747  42.398  57.519  0.00  0.00     0.017 C 
HETATM   14  C   UNK N   1      29.578  42.793  56.663  0.00  0.00    -0.055 C 
HETATM   15  C   UNK N   1      28.768  43.611  57.330  0.00  0.00    -0.009 C 
HETATM   16  C   UNK N   1      30.086  42.540  58.893  0.00  0.00     0.025 C 
HETATM   17  C   UNK N   1      30.006  46.971  60.446  0.00  0.00     0.016 C 
HETATM   18  C   UNK N   1      25.948  47.533  57.903  0.00  0.00     0.020 C 
ENDROOT
BRANCH   1  19
HETATM   19  C   UNK N   1      27.026  48.577  59.886  0.00  0.00     0.191 C 
BRANCH  19  20
HETATM   20  O   UNK N   1      26.640  49.877  59.632  0.00  0.00    -0.321 OA
BRANCH  20  21
HETATM   21  C   UNK N   1      27.129  50.966  60.275  0.00  0.00     0.254 C 
HETATM   22  O   UNK N   1      27.569  50.880  61.410  0.00  0.00    -0.266 OA
HETATM   23  C   UNK N   1      27.135  52.281  59.563  0.00  0.00     0.126 C 
ENDBRANCH  20  21
ENDBRANCH  19  20
ENDBRANCH   1  19
BRANCH   2  24
HETATM   24  O   UNK N   1      28.117  48.242  56.281  0.00  0.00    -0.395 OA
HETATM   25  H   UNK N   1      29.045  47.970  56.063  0.00  0.00     0.210 HD
ENDBRANCH   2  24
BRANCH   8  26
HETATM   26  O   UNK N   1      28.841  44.103  61.059  0.00  0.00    -0.394 OA
HETATM   27  H   UNK N   1      29.117  43.180  61.302  0.00  0.00     0.210 HD
ENDBRANCH   8  26
BRANCH  14  28
HETATM   28  C   UNK N   1      29.359  42.358  55.242  0.00  0.00     0.198 C 
BRANCH  28  29
HETATM   29  O   UNK N   1      30.513  41.764  54.711  0.00  0.00    -0.397 OA
HETATM   30  H   UNK N   1      30.536  41.984  53.743  0.00  0.00     0.209 HD
ENDBRANCH  28  29
ENDBRANCH  14  28
TORSDOF 7
ENDMDL
