MODEL 1
REMARK VINA RESULT:      -5.3      0.000      0.000
REMARK  8 active torsions:
REMARK  status: ('A' for Active; 'I' for Inactive)
REMARK    1  A    between atoms: C_7  and  O_8 
REMARK    2  A    between atoms: O_8  and  C_9 
REMARK    3  A    between atoms: C_12  and  O_13 
REMARK    4  A    between atoms: O_13  and  C_14 
REMARK    5  A    between atoms: C_18  and  O_19 
REMARK    6  A    between atoms: O_19  and  C_20 
REMARK    7  A    between atoms: C_20  and  C_22 
REMARK    8  A    between atoms: C_33  and  O_34 
ROOT
HETATM    1  O   UNK N   1      27.171  41.767  55.524  0.00  0.00    -0.297 OA
HETATM    2  C   UNK N   1      27.740  41.895  56.599  0.00  0.00     0.141 C 
HETATM    3  C   UNK N   1      29.169  41.339  56.768  0.00  0.00     0.031 C 
HETATM    4  C   UNK N   1      29.553  41.198  58.251  0.00  0.00    -0.014 C 
HETATM    5  C   UNK N   1      30.653  41.712  58.843  0.00  0.00    -0.023 C 
HETATM    6  C   UNK N   1      30.964  41.400  60.300  0.00  0.00     0.036 C 
HETATM    7  C   UNK N   1      31.193  42.635  61.231  0.00  0.00     0.175 C 
HETATM    8  C   UNK N   1      29.930  43.557  61.499  0.00  0.00     0.107 C 
HETATM    9  C   UNK N   1      29.566  44.464  60.289  0.00  0.00     0.076 C 
HETATM   10  C   UNK N   1      30.427  45.712  60.487  0.00  0.00     0.146 C 
HETATM   11  C   UNK N   1      30.269  45.991  61.975  0.00  0.00     0.015 C 
HETATM   12  C   UNK N   1      30.243  44.595  62.629  0.00  0.00     0.049 C 
HETATM   13  C   UNK N   1      31.339  46.920  62.554  0.00  0.00     0.012 C 
HETATM   14  C   UNK N   1      28.065  44.826  60.273  0.00  0.00    -0.011 C 
HETATM   15  C   UNK N   1      27.199  44.622  59.239  0.00  0.00    -0.058 C 
HETATM   16  C   UNK N   1      27.613  44.024  57.900  0.00  0.00     0.153 C 
HETATM   17  C   UNK N   1      27.014  42.619  57.714  0.00  0.00     0.115 C 
HETATM   18  C   UNK N   1      25.748  45.010  59.419  0.00  0.00     0.046 C 
HETATM   19  C   UNK N   1      32.209  40.499  60.325  0.00  0.00     0.017 C 
HETATM   20  C   UNK N   1      29.204  39.906  56.198  0.00  0.00     0.027 C 
HETATM   21  C   UNK N   1      30.152  42.203  55.945  0.00  0.00     0.027 C 
ENDROOT
BRANCH  10  22
HETATM   22  O   UNK N   1      29.964  46.760  59.709  0.00  0.00    -0.311 OA
BRANCH  22  23
HETATM   23  C   UNK N   1      30.239  46.957  58.393  0.00  0.00     0.293 C 
HETATM   24  O   UNK N   1      31.029  46.233  57.806  0.00  0.00    -0.259 OA
BRANCH  23  25
HETATM   25  C   UNK N   1      29.562  48.066  57.676  0.00  0.00     0.039 A 
HETATM   26  C   UNK N   1      28.160  48.188  57.702  0.00  0.00     0.017 A 
HETATM   27  C   UNK N   1      27.531  49.224  57.003  0.00  0.00     0.001 A 
HETATM   28  C   UNK N   1      28.292  50.146  56.279  0.00  0.00     0.000 A 
HETATM   29  C   UNK N   1      29.684  50.038  56.255  0.00  0.00     0.001 A 
HETATM   30  C   UNK N   1      30.319  49.003  56.949  0.00  0.00     0.017 A 
ENDBRANCH  23  25
ENDBRANCH  22  23
ENDBRANCH  10  22
BRANCH   8  31
HETATM   31  O   UNK N   1      28.833  42.758  61.825  0.00  0.00    -0.307 OA
BRANCH  31  32
HETATM   32  C   UNK N   1      28.419  42.406  63.073  0.00  0.00     0.255 C 
HETATM   33  O   UNK N   1      29.037  41.589  63.741  0.00  0.00    -0.266 OA
HETATM   34  C   UNK N   1      27.189  43.043  63.635  0.00  0.00     0.126 C 
ENDBRANCH  31  32
ENDBRANCH   8  31
BRANCH   7  35
HETATM   35  O   UNK N   1      32.277  43.368  60.769  0.00  0.00    -0.313 OA
BRANCH  35  36
HETATM   36  C   UNK N   1      33.505  43.414  61.353  0.00  0.00     0.255 C 
HETATM   37  O   UNK N   1      34.507  43.061  60.746  0.00  0.00    -0.266 OA
HETATM   38  C   UNK N   1      33.628  43.912  62.756  0.00  0.00     0.126 C 
ENDBRANCH  35  36
ENDBRANCH   7  35
BRANCH  16  39
HETATM   39  O   UNK N   1      27.204  44.884  56.864  0.00  0.00    -0.391 OA
HETATM   40  H   UNK N   1      27.830  45.655  56.846  0.00  0.00     0.210 HD
ENDBRANCH  16  39
TORSDOF 8
ENDMDL
MODEL 2
REMARK VINA RESULT:      -5.1      2.391      4.924
REMARK  8 active torsions:
REMARK  status: ('A' for Active; 'I' for Inactive)
REMARK    1  A    between atoms: C_7  and  O_8 
REMARK    2  A    between atoms: O_8  and  C_9 
REMARK    3  A    between atoms: C_12  and  O_13 
REMARK    4  A    between atoms: O_13  and  C_14 
REMARK    5  A    between atoms: C_18  and  O_19 
REMARK    6  A    between atoms: O_19  and  C_20 
REMARK    7  A    between atoms: C_20  and  C_22 
REMARK    8  A    between atoms: C_33  and  O_34 
ROOT
HETATM    1  O   UNK N   1      25.097  45.066  59.521  0.00  0.00    -0.297 OA
HETATM    2  C   UNK N   1      26.108  44.510  59.927  0.00  0.00     0.141 C 
HETATM    3  C   UNK N   1      26.090  42.985  60.156  0.00  0.00     0.031 C 
HETATM    4  C   UNK N   1      27.256  42.530  61.050  0.00  0.00    -0.014 C 
HETATM    5  C   UNK N   1      28.157  41.566  60.757  0.00  0.00    -0.023 C 
HETATM    6  C   UNK N   1      29.196  41.142  61.787  0.00  0.00     0.036 C 
HETATM    7  C   UNK N   1      30.685  41.185  61.313  0.00  0.00     0.175 C 
HETATM    8  C   UNK N   1      31.287  42.622  61.016  0.00  0.00     0.107 C 
HETATM    9  C   UNK N   1      30.783  43.233  59.677  0.00  0.00     0.076 C 
HETATM   10  C   UNK N   1      31.758  42.689  58.631  0.00  0.00     0.146 C 
HETATM   11  C   UNK N   1      33.107  42.861  59.315  0.00  0.00     0.015 C 
HETATM   12  C   UNK N   1      32.835  42.530  60.796  0.00  0.00     0.049 C 
HETATM   13  C   UNK N   1      34.231  42.027  58.696  0.00  0.00     0.012 C 
HETATM   14  C   UNK N   1      30.807  44.776  59.704  0.00  0.00    -0.011 C 
HETATM   15  C   UNK N   1      29.752  45.601  59.446  0.00  0.00    -0.058 C 
HETATM   16  C   UNK N   1      28.370  45.100  59.044  0.00  0.00     0.153 C 
HETATM   17  C   UNK N   1      27.345  45.351  60.164  0.00  0.00     0.115 C 
HETATM   18  C   UNK N   1      29.955  47.096  59.556  0.00  0.00     0.046 C 
HETATM   19  C   UNK N   1      28.841  39.717  62.241  0.00  0.00     0.017 C 
HETATM   20  C   UNK N   1      24.809  42.625  60.938  0.00  0.00     0.027 C 
HETATM   21  C   UNK N   1      26.030  42.264  58.789  0.00  0.00     0.027 C 
ENDROOT
BRANCH  10  22
HETATM   22  O   UNK N   1      31.674  43.415  57.455  0.00  0.00    -0.311 OA
BRANCH  22  23
HETATM   23  C   UNK N   1      31.616  42.896  56.200  0.00  0.00     0.293 C 
HETATM   24  O   UNK N   1      32.599  42.910  55.475  0.00  0.00    -0.259 OA
BRANCH  23  25
HETATM   25  C   UNK N   1      30.340  42.309  55.724  0.00  0.00     0.039 A 
HETATM   26  C   UNK N   1      29.107  42.764  56.227  0.00  0.00     0.017 A 
HETATM   27  C   UNK N   1      27.912  42.186  55.787  0.00  0.00     0.001 A 
HETATM   28  C   UNK N   1      27.935  41.156  54.843  0.00  0.00     0.000 A 
HETATM   29  C   UNK N   1      29.153  40.704  54.331  0.00  0.00     0.001 A 
HETATM   30  C   UNK N   1      30.352  41.276  54.768  0.00  0.00     0.017 A 
ENDBRANCH  23  25
ENDBRANCH  22  23
ENDBRANCH  10  22
BRANCH   8  31
HETATM   31  O   UNK N   1      30.968  43.484  62.067  0.00  0.00    -0.307 OA
BRANCH  31  32
HETATM   32  C   UNK N   1      31.733  43.763  63.158  0.00  0.00     0.255 C 
HETATM   33  O   UNK N   1      31.877  42.947  64.057  0.00  0.00    -0.266 OA
HETATM   34  C   UNK N   1      32.413  45.090  63.246  0.00  0.00     0.126 C 
ENDBRANCH  31  32
ENDBRANCH   8  31
BRANCH   7  35
HETATM   35  O   UNK N   1      30.854  40.324  60.238  0.00  0.00    -0.313 OA
BRANCH  35  36
HETATM   36  C   UNK N   1      31.475  39.114  60.285  0.00  0.00     0.255 C 
HETATM   37  O   UNK N   1      30.833  38.073  60.270  0.00  0.00    -0.266 OA
HETATM   38  C   UNK N   1      32.967  39.061  60.350  0.00  0.00     0.126 C 
ENDBRANCH  35  36
ENDBRANCH   7  35
BRANCH  16  39
HETATM   39  O   UNK N   1      27.975  45.737  57.853  0.00  0.00    -0.391 OA
HETATM   40  H   UNK N   1      28.184  46.704  57.944  0.00  0.00     0.210 HD
ENDBRANCH  16  39
TORSDOF 8
ENDMDL
MODEL 3
REMARK VINA RESULT:      -5.1      2.668      6.012
REMARK  8 active torsions:
REMARK  status: ('A' for Active; 'I' for Inactive)
REMARK    1  A    between atoms: C_7  and  O_8 
REMARK    2  A    between atoms: O_8  and  C_9 
REMARK    3  A    between atoms: C_12  and  O_13 
REMARK    4  A    between atoms: O_13  and  C_14 
REMARK    5  A    between atoms: C_18  and  O_19 
REMARK    6  A    between atoms: O_19  and  C_20 
REMARK    7  A    between atoms: C_20  and  C_22 
REMARK    8  A    between atoms: C_33  and  O_34 
ROOT
HETATM    1  O   UNK N   1      28.112  50.727  58.864  0.00  0.00    -0.297 OA
HETATM    2  C   UNK N   1      28.359  49.556  59.121  0.00  0.00     0.141 C 
HETATM    3  C   UNK N   1      29.044  48.677  58.055  0.00  0.00     0.031 C 
HETATM    4  C   UNK N   1      28.888  47.179  58.367  0.00  0.00    -0.014 C 
HETATM    5  C   UNK N   1      29.888  46.274  58.455  0.00  0.00    -0.023 C 
HETATM    6  C   UNK N   1      29.576  44.798  58.663  0.00  0.00     0.036 C 
HETATM    7  C   UNK N   1      30.289  44.113  59.873  0.00  0.00     0.175 C 
HETATM    8  C   UNK N   1      29.851  44.605  61.317  0.00  0.00     0.107 C 
HETATM    9  C   UNK N   1      30.429  45.999  61.691  0.00  0.00     0.076 C 
HETATM   10  C   UNK N   1      31.799  45.683  62.295  0.00  0.00     0.146 C 
HETATM   11  C   UNK N   1      31.496  44.497  63.201  0.00  0.00     0.015 C 
HETATM   12  C   UNK N   1      30.456  43.670  62.418  0.00  0.00     0.049 C 
HETATM   13  C   UNK N   1      32.733  43.695  63.613  0.00  0.00     0.012 C 
HETATM   14  C   UNK N   1      29.535  46.738  62.709  0.00  0.00    -0.011 C 
HETATM   15  C   UNK N   1      29.009  47.987  62.559  0.00  0.00    -0.058 C 
HETATM   16  C   UNK N   1      29.270  48.871  61.344  0.00  0.00     0.153 C 
HETATM   17  C   UNK N   1      27.997  49.031  60.495  0.00  0.00     0.115 C 
HETATM   18  C   UNK N   1      28.120  48.539  63.652  0.00  0.00     0.046 C 
HETATM   19  C   UNK N   1      29.945  44.061  57.365  0.00  0.00     0.017 C 
HETATM   20  C   UNK N   1      28.320  48.892  56.709  0.00  0.00     0.027 C 
HETATM   21  C   UNK N   1      30.511  49.133  57.884  0.00  0.00     0.027 C 
ENDROOT
BRANCH  10  22
HETATM   22  O   UNK N   1      32.288  46.768  63.004  0.00  0.00    -0.311 OA
BRANCH  22  23
HETATM   23  C   UNK N   1      33.373  46.763  63.822  0.00  0.00     0.293 C 
HETATM   24  O   UNK N   1      33.240  46.662  65.032  0.00  0.00    -0.259 OA
BRANCH  23  25
HETATM   25  C   UNK N   1      34.725  46.879  63.222  0.00  0.00     0.039 A 
HETATM   26  C   UNK N   1      35.298  48.141  62.981  0.00  0.00     0.017 A 
HETATM   27  C   UNK N   1      36.563  48.238  62.393  0.00  0.00     0.001 A 
HETATM   28  C   UNK N   1      37.268  47.083  62.047  0.00  0.00     0.000 A 
HETATM   29  C   UNK N   1      36.711  45.825  62.291  0.00  0.00     0.001 A 
HETATM   30  C   UNK N   1      35.445  45.721  62.876  0.00  0.00     0.017 A 
ENDBRANCH  23  25
ENDBRANCH  22  23
ENDBRANCH  10  22
BRANCH   8  31
HETATM   31  O   UNK N   1      28.458  44.647  61.389  0.00  0.00    -0.307 OA
BRANCH  31  32
HETATM   32  C   UNK N   1      27.633  43.686  61.889  0.00  0.00     0.255 C 
HETATM   33  O   UNK N   1      27.427  42.647  61.278  0.00  0.00    -0.266 OA
HETATM   34  C   UNK N   1      26.981  43.908  63.214  0.00  0.00     0.126 C 
ENDBRANCH  31  32
ENDBRANCH   8  31
BRANCH   7  35
HETATM   35  O   UNK N   1      31.664  44.183  59.702  0.00  0.00    -0.313 OA
BRANCH  35  36
HETATM   36  C   UNK N   1      32.469  43.146  59.341  0.00  0.00     0.255 C 
HETATM   37  O   UNK N   1      33.330  43.283  58.483  0.00  0.00    -0.266 OA
HETATM   38  C   UNK N   1      32.298  41.822  60.012  0.00  0.00     0.126 C 
ENDBRANCH  35  36
ENDBRANCH   7  35
BRANCH  16  39
HETATM   39  O   UNK N   1      29.744  50.123  61.777  0.00  0.00    -0.391 OA
HETATM   40  H   UNK N   1      30.737  50.091  61.763  0.00  0.00     0.210 HD
ENDBRANCH  16  39
TORSDOF 8
ENDMDL
MODEL 4
REMARK VINA RESULT:      -5.1      2.494      7.198
REMARK  8 active torsions:
REMARK  status: ('A' for Active; 'I' for Inactive)
REMARK    1  A    between atoms: C_7  and  O_8 
REMARK    2  A    between atoms: O_8  and  C_9 
REMARK    3  A    between atoms: C_12  and  O_13 
REMARK    4  A    between atoms: O_13  and  C_14 
REMARK    5  A    between atoms: C_18  and  O_19 
REMARK    6  A    between atoms: O_19  and  C_20 
REMARK    7  A    between atoms: C_20  and  C_22 
REMARK    8  A    between atoms: C_33  and  O_34 
ROOT
HETATM    1  O   UNK N   1      26.024  42.015  52.742  0.00  0.00    -0.297 OA
HETATM    2  C   UNK N   1      26.489  42.446  53.788  0.00  0.00     0.141 C 
HETATM    3  C   UNK N   1      25.533  42.833  54.935  0.00  0.00     0.031 C 
HETATM    4  C   UNK N   1      26.225  43.735  55.972  0.00  0.00    -0.014 C 
HETATM    5  C   UNK N   1      26.285  43.517  57.304  0.00  0.00    -0.023 C 
HETATM    6  C   UNK N   1      26.910  44.554  58.228  0.00  0.00     0.036 C 
HETATM    7  C   UNK N   1      28.044  44.035  59.171  0.00  0.00     0.175 C 
HETATM    8  C   UNK N   1      29.388  43.573  58.467  0.00  0.00     0.107 C 
HETATM    9  C   UNK N   1      29.266  42.193  57.759  0.00  0.00     0.076 C 
HETATM   10  C   UNK N   1      29.582  41.181  58.862  0.00  0.00     0.146 C 
HETATM   11  C   UNK N   1      30.791  41.803  59.546  0.00  0.00     0.015 C 
HETATM   12  C   UNK N   1      30.504  43.318  59.536  0.00  0.00     0.049 C 
HETATM   13  C   UNK N   1      31.076  41.242  60.941  0.00  0.00     0.012 C 
HETATM   14  C   UNK N   1      30.259  42.059  56.586  0.00  0.00    -0.011 C 
HETATM   15  C   UNK N   1      29.944  41.747  55.296  0.00  0.00    -0.058 C 
HETATM   16  C   UNK N   1      28.526  41.440  54.826  0.00  0.00     0.153 C 
HETATM   17  C   UNK N   1      27.994  42.558  53.913  0.00  0.00     0.115 C 
HETATM   18  C   UNK N   1      31.052  41.695  54.268  0.00  0.00     0.046 C 
HETATM   19  C   UNK N   1      25.779  45.165  59.070  0.00  0.00     0.017 C 
HETATM   20  C   UNK N   1      24.389  43.686  54.349  0.00  0.00     0.027 C 
HETATM   21  C   UNK N   1      24.911  41.551  55.535  0.00  0.00     0.027 C 
ENDROOT
BRANCH  10  22
HETATM   22  O   UNK N   1      29.870  39.938  58.322  0.00  0.00    -0.311 OA
BRANCH  22  23
HETATM   23  C   UNK N   1      28.967  38.965  58.035  0.00  0.00     0.293 C 
HETATM   24  O   UNK N   1      27.839  39.003  58.503  0.00  0.00    -0.259 OA
BRANCH  23  25
HETATM   25  C   UNK N   1      29.370  37.852  57.140  0.00  0.00     0.039 A 
HETATM   26  C   UNK N   1      29.932  38.114  55.876  0.00  0.00     0.017 A 
HETATM   27  C   UNK N   1      30.286  37.057  55.031  0.00  0.00     0.001 A 
HETATM   28  C   UNK N   1      30.089  35.735  55.439  0.00  0.00     0.000 A 
HETATM   29  C   UNK N   1      29.542  35.466  56.695  0.00  0.00     0.001 A 
HETATM   30  C   UNK N   1      29.183  36.517  57.544  0.00  0.00     0.017 A 
ENDBRANCH  23  25
ENDBRANCH  22  23
ENDBRANCH  10  22
BRANCH   8  31
HETATM   31  O   UNK N   1      29.779  44.537  57.537  0.00  0.00    -0.307 OA
BRANCH  31  32
HETATM   32  C   UNK N   1      30.743  45.485  57.696  0.00  0.00     0.255 C 
HETATM   33  O   UNK N   1      31.892  45.291  57.325  0.00  0.00    -0.266 OA
HETATM   34  C   UNK N   1      30.380  46.789  58.328  0.00  0.00     0.126 C 
ENDBRANCH  31  32
ENDBRANCH   8  31
BRANCH   7  35
HETATM   35  O   UNK N   1      27.536  43.050  60.007  0.00  0.00    -0.313 OA
BRANCH  35  36
HETATM   36  C   UNK N   1      27.669  43.019  61.361  0.00  0.00     0.255 C 
HETATM   37  O   UNK N   1      27.694  41.957  61.969  0.00  0.00    -0.266 OA
HETATM   38  C   UNK N   1      27.792  44.304  62.113  0.00  0.00     0.126 C 
ENDBRANCH  35  36
ENDBRANCH   7  35
BRANCH  16  39
HETATM   39  O   UNK N   1      28.518  40.202  54.159  0.00  0.00    -0.391 OA
HETATM   40  H   UNK N   1      29.445  40.015  53.857  0.00  0.00     0.210 HD
ENDBRANCH  16  39
TORSDOF 8
ENDMDL
MODEL 5
REMARK VINA RESULT:      -5.0      1.953      6.261
REMARK  8 active torsions:
REMARK  status: ('A' for Active; 'I' for Inactive)
REMARK    1  A    between atoms: C_7  and  O_8 
REMARK    2  A    between atoms: O_8  and  C_9 
REMARK    3  A    between atoms: C_12  and  O_13 
REMARK    4  A    between atoms: O_13  and  C_14 
REMARK    5  A    between atoms: C_18  and  O_19 
REMARK    6  A    between atoms: O_19  and  C_20 
REMARK    7  A    between atoms: C_20  and  C_22 
REMARK    8  A    between atoms: C_33  and  O_34 
ROOT
HETATM    1  O   UNK N   1      29.498  48.317  60.129  0.00  0.00    -0.297 OA
HETATM    2  C   UNK N   1      29.216  47.148  59.901  0.00  0.00     0.141 C 
HETATM    3  C   UNK N   1      29.055  46.682  58.440  0.00  0.00     0.031 C 
HETATM    4  C   UNK N   1      28.298  45.346  58.349  0.00  0.00    -0.014 C 
HETATM    5  C   UNK N   1      28.719  44.233  57.708  0.00  0.00    -0.023 C 
HETATM    6  C   UNK N   1      27.814  43.012  57.607  0.00  0.00     0.036 C 
HETATM    7  C   UNK N   1      28.425  41.663  58.107  0.00  0.00     0.175 C 
HETATM    8  C   UNK N   1      28.714  41.557  59.663  0.00  0.00     0.107 C 
HETATM    9  C   UNK N   1      29.970  42.359  60.110  0.00  0.00     0.076 C 
HETATM   10  C   UNK N   1      31.128  41.381  59.903  0.00  0.00     0.146 C 
HETATM   11  C   UNK N   1      30.570  40.082  60.468  0.00  0.00     0.015 C 
HETATM   12  C   UNK N   1      29.086  40.086  60.050  0.00  0.00     0.049 C 
HETATM   13  C   UNK N   1      31.330  38.831  60.023  0.00  0.00     0.012 C 
HETATM   14  C   UNK N   1      29.876  42.799  61.587  0.00  0.00    -0.011 C 
HETATM   15  C   UNK N   1      29.995  44.074  62.056  0.00  0.00    -0.058 C 
HETATM   16  C   UNK N   1      30.285  45.275  61.164  0.00  0.00     0.153 C 
HETATM   17  C   UNK N   1      29.061  46.204  61.075  0.00  0.00     0.115 C 
HETATM   18  C   UNK N   1      29.838  44.321  63.540  0.00  0.00     0.046 C 
HETATM   19  C   UNK N   1      27.392  42.871  56.135  0.00  0.00     0.017 C 
HETATM   20  C   UNK N   1      28.170  47.705  57.697  0.00  0.00     0.027 C 
HETATM   21  C   UNK N   1      30.441  46.665  57.754  0.00  0.00     0.027 C 
ENDROOT
BRANCH  10  22
HETATM   22  O   UNK N   1      32.257  41.803  60.585  0.00  0.00    -0.311 OA
BRANCH  22  23
HETATM   23  C   UNK N   1      33.261  42.561  60.073  0.00  0.00     0.293 C 
HETATM   24  O   UNK N   1      33.452  42.610  58.867  0.00  0.00    -0.259 OA
BRANCH  23  25
HETATM   25  C   UNK N   1      34.123  43.334  61.000  0.00  0.00     0.039 A 
HETATM   26  C   UNK N   1      33.683  43.645  62.300  0.00  0.00     0.017 A 
HETATM   27  C   UNK N   1      34.495  44.395  63.158  0.00  0.00     0.001 A 
HETATM   28  C   UNK N   1      35.750  44.835  62.730  0.00  0.00     0.000 A 
HETATM   29  C   UNK N   1      36.199  44.524  61.445  0.00  0.00     0.001 A 
HETATM   30  C   UNK N   1      35.392  43.777  60.582  0.00  0.00     0.017 A 
ENDBRANCH  23  25
ENDBRANCH  22  23
ENDBRANCH  10  22
BRANCH   8  31
HETATM   31  O   UNK N   1      27.601  42.008  60.373  0.00  0.00    -0.307 OA
BRANCH  31  32
HETATM   32  C   UNK N   1      26.588  41.250  60.878  0.00  0.00     0.255 C 
HETATM   33  O   UNK N   1      25.745  40.751  60.147  0.00  0.00    -0.266 OA
HETATM   34  C   UNK N   1      26.521  41.021  62.353  0.00  0.00     0.126 C 
ENDBRANCH  31  32
ENDBRANCH   8  31
BRANCH   7  35
HETATM   35  O   UNK N   1      29.550  41.357  57.354  0.00  0.00    -0.313 OA
BRANCH  35  36
HETATM   36  C   UNK N   1      29.640  40.347  56.446  0.00  0.00     0.255 C 
HETATM   37  O   UNK N   1      29.414  39.188  56.765  0.00  0.00    -0.266 OA
HETATM   38  C   UNK N   1      30.015  40.665  55.035  0.00  0.00     0.126 C 
ENDBRANCH  35  36
ENDBRANCH   7  35
BRANCH  16  39
HETATM   39  O   UNK N   1      31.403  45.966  61.667  0.00  0.00    -0.391 OA
HETATM   40  H   UNK N   1      31.262  46.934  61.495  0.00  0.00     0.210 HD
ENDBRANCH  16  39
TORSDOF 8
ENDMDL
MODEL 6
REMARK VINA RESULT:      -5.0      2.218      6.816
REMARK  8 active torsions:
REMARK  status: ('A' for Active; 'I' for Inactive)
REMARK    1  A    between atoms: C_7  and  O_8 
REMARK    2  A    between atoms: O_8  and  C_9 
REMARK    3  A    between atoms: C_12  and  O_13 
REMARK    4  A    between atoms: O_13  and  C_14 
REMARK    5  A    between atoms: C_18  and  O_19 
REMARK    6  A    between atoms: O_19  and  C_20 
REMARK    7  A    between atoms: C_20  and  C_22 
REMARK    8  A    between atoms: C_33  and  O_34 
ROOT
HETATM    1  O   UNK N   1      28.604  46.939  64.274  0.00  0.00    -0.297 OA
HETATM    2  C   UNK N   1      28.583  46.516  63.126  0.00  0.00     0.141 C 
HETATM    3  C   UNK N   1      29.726  46.894  62.162  0.00  0.00     0.031 C 
HETATM    4  C   UNK N   1      29.335  46.651  60.694  0.00  0.00    -0.014 C 
HETATM    5  C   UNK N   1      30.030  45.922  59.793  0.00  0.00    -0.023 C 
HETATM    6  C   UNK N   1      29.580  45.858  58.340  0.00  0.00     0.036 C 
HETATM    7  C   UNK N   1      29.379  44.425  57.749  0.00  0.00     0.175 C 
HETATM    8  C   UNK N   1      28.184  43.576  58.355  0.00  0.00     0.107 C 
HETATM    9  C   UNK N   1      28.490  43.011  59.772  0.00  0.00     0.076 C 
HETATM   10  C   UNK N   1      29.197  41.683  59.497  0.00  0.00     0.146 C 
HETATM   11  C   UNK N   1      28.348  41.078  58.388  0.00  0.00     0.015 C 
HETATM   12  C   UNK N   1      27.950  42.280  57.507  0.00  0.00     0.049 C 
HETATM   13  C   UNK N   1      29.039  39.953  57.615  0.00  0.00     0.012 C 
HETATM   14  C   UNK N   1      27.203  42.790  60.594  0.00  0.00    -0.011 C 
HETATM   15  C   UNK N   1      26.940  43.303  61.830  0.00  0.00    -0.058 C 
HETATM   16  C   UNK N   1      27.928  44.160  62.614  0.00  0.00     0.153 C 
HETATM   17  C   UNK N   1      27.438  45.615  62.714  0.00  0.00     0.115 C 
HETATM   18  C   UNK N   1      25.602  43.008  62.471  0.00  0.00     0.046 C 
HETATM   19  C   UNK N   1      30.618  46.620  57.501  0.00  0.00     0.017 C 
HETATM   20  C   UNK N   1      29.975  48.412  62.274  0.00  0.00     0.027 C 
HETATM   21  C   UNK N   1      31.020  46.166  62.595  0.00  0.00     0.027 C 
ENDROOT
BRANCH  10  22
HETATM   22  O   UNK N   1      29.214  40.889  60.632  0.00  0.00    -0.311 OA
BRANCH  22  23
HETATM   23  C   UNK N   1      30.280  40.692  61.451  0.00  0.00     0.293 C 
HETATM   24  O   UNK N   1      30.203  39.927  62.400  0.00  0.00    -0.259 OA
BRANCH  23  25
HETATM   25  C   UNK N   1      31.543  41.418  61.173  0.00  0.00     0.039 A 
HETATM   26  C   UNK N   1      32.476  40.912  60.249  0.00  0.00     0.017 A 
HETATM   27  C   UNK N   1      33.674  41.594  60.014  0.00  0.00     0.001 A 
HETATM   28  C   UNK N   1      33.950  42.785  60.690  0.00  0.00     0.000 A 
HETATM   29  C   UNK N   1      33.026  43.300  61.603  0.00  0.00     0.001 A 
HETATM   30  C   UNK N   1      31.828  42.622  61.845  0.00  0.00     0.017 A 
ENDBRANCH  23  25
ENDBRANCH  22  23
ENDBRANCH  10  22
BRANCH   8  31
HETATM   31  O   UNK N   1      27.035  44.366  58.411  0.00  0.00    -0.307 OA
BRANCH  31  32
HETATM   32  C   UNK N   1      25.998  44.369  57.528  0.00  0.00     0.255 C 
HETATM   33  O   UNK N   1      26.074  44.965  56.463  0.00  0.00    -0.266 OA
HETATM   34  C   UNK N   1      24.753  43.619  57.870  0.00  0.00     0.126 C 
ENDBRANCH  31  32
ENDBRANCH   8  31
BRANCH   7  35
HETATM   35  O   UNK N   1      30.579  43.731  57.797  0.00  0.00    -0.313 OA
BRANCH  35  36
HETATM   36  C   UNK N   1      31.338  43.389  56.720  0.00  0.00     0.255 C 
HETATM   37  O   UNK N   1      32.461  43.849  56.567  0.00  0.00    -0.266 OA
HETATM   38  C   UNK N   1      30.788  42.431  55.714  0.00  0.00     0.126 C 
ENDBRANCH  35  36
ENDBRANCH   7  35
BRANCH  16  39
HETATM   39  O   UNK N   1      28.109  43.604  63.894  0.00  0.00    -0.391 OA
HETATM   40  H   UNK N   1      28.975  43.936  64.247  0.00  0.00     0.210 HD
ENDBRANCH  16  39
TORSDOF 8
ENDMDL
MODEL 7
REMARK VINA RESULT:      -4.9      2.321      6.448
REMARK  8 active torsions:
REMARK  status: ('A' for Active; 'I' for Inactive)
REMARK    1  A    between atoms: C_7  and  O_8 
REMARK    2  A    between atoms: O_8  and  C_9 
REMARK    3  A    between atoms: C_12  and  O_13 
REMARK    4  A    between atoms: O_13  and  C_14 
REMARK    5  A    between atoms: C_18  and  O_19 
REMARK    6  A    between atoms: O_19  and  C_20 
REMARK    7  A    between atoms: C_20  and  C_22 
REMARK    8  A    between atoms: C_33  and  O_34 
ROOT
HETATM    1  O   UNK N   1      29.850  41.850  64.246  0.00  0.00    -0.297 OA
HETATM    2  C   UNK N   1      29.284  41.739  63.167  0.00  0.00     0.141 C 
HETATM    3  C   UNK N   1      28.186  42.752  62.784  0.00  0.00     0.031 C 
HETATM    4  C   UNK N   1      27.306  42.229  61.636  0.00  0.00    -0.014 C 
HETATM    5  C   UNK N   1      27.040  42.872  60.477  0.00  0.00    -0.023 C 
HETATM    6  C   UNK N   1      26.060  42.281  59.473  0.00  0.00     0.036 C 
HETATM    7  C   UNK N   1      26.594  42.110  58.014  0.00  0.00     0.175 C 
HETATM    8  C   UNK N   1      27.746  41.038  57.809  0.00  0.00     0.107 C 
HETATM    9  C   UNK N   1      29.132  41.522  58.322  0.00  0.00     0.076 C 
HETATM   10  C   UNK N   1      29.725  42.279  57.132  0.00  0.00     0.146 C 
HETATM   11  C   UNK N   1      29.405  41.360  55.962  0.00  0.00     0.015 C 
HETATM   12  C   UNK N   1      28.004  40.801  56.283  0.00  0.00     0.049 C 
HETATM   13  C   UNK N   1      29.496  42.037  54.593  0.00  0.00     0.012 C 
HETATM   14  C   UNK N   1      30.038  40.342  58.732  0.00  0.00    -0.011 C 
HETATM   15  C   UNK N   1      30.645  40.176  59.942  0.00  0.00    -0.058 C 
HETATM   16  C   UNK N   1      30.541  41.183  61.081  0.00  0.00     0.153 C 
HETATM   17  C   UNK N   1      29.709  40.616  62.245  0.00  0.00     0.115 C 
HETATM   18  C   UNK N   1      31.471  38.930  60.176  0.00  0.00     0.046 C 
HETATM   19  C   UNK N   1      24.812  43.180  59.462  0.00  0.00     0.017 C 
HETATM   20  C   UNK N   1      27.234  42.917  63.987  0.00  0.00     0.027 C 
HETATM   21  C   UNK N   1      28.836  44.126  62.500  0.00  0.00     0.027 C 
ENDROOT
BRANCH  10  22
HETATM   22  O   UNK N   1      31.089  42.461  57.293  0.00  0.00    -0.311 OA
BRANCH  22  23
HETATM   23  C   UNK N   1      31.682  43.301  58.181  0.00  0.00     0.293 C 
HETATM   24  O   UNK N   1      32.660  42.944  58.819  0.00  0.00    -0.259 OA
BRANCH  23  25
HETATM   25  C   UNK N   1      31.124  44.664  58.362  0.00  0.00     0.039 A 
HETATM   26  C   UNK N   1      30.406  44.998  59.526  0.00  0.00     0.017 A 
HETATM   27  C   UNK N   1      29.864  46.279  59.675  0.00  0.00     0.001 A 
HETATM   28  C   UNK N   1      30.038  47.236  58.672  0.00  0.00     0.000 A 
HETATM   29  C   UNK N   1      30.756  46.917  57.518  0.00  0.00     0.001 A 
HETATM   30  C   UNK N   1      31.298  45.638  57.361  0.00  0.00     0.017 A 
ENDBRANCH  23  25
ENDBRANCH  22  23
ENDBRANCH  10  22
BRANCH   8  31
HETATM   31  O   UNK N   1      27.399  39.854  58.461  0.00  0.00    -0.307 OA
BRANCH  31  32
HETATM   32  C   UNK N   1      26.850  38.741  57.901  0.00  0.00     0.255 C 
HETATM   33  O   UNK N   1      25.667  38.704  57.592  0.00  0.00    -0.266 OA
HETATM   34  C   UNK N   1      27.718  37.551  57.654  0.00  0.00     0.126 C 
ENDBRANCH  31  32
ENDBRANCH   8  31
BRANCH   7  35
HETATM   35  O   UNK N   1      26.949  43.350  57.502  0.00  0.00    -0.313 OA
BRANCH  35  36
HETATM   36  C   UNK N   1      26.252  44.044  56.561  0.00  0.00     0.255 C 
HETATM   37  O   UNK N   1      25.976  45.225  56.723  0.00  0.00    -0.266 OA
HETATM   38  C   UNK N   1      25.827  43.350  55.308  0.00  0.00     0.126 C 
ENDBRANCH  35  36
ENDBRANCH   7  35
BRANCH  16  39
HETATM   39  O   UNK N   1      31.835  41.528  61.513  0.00  0.00    -0.391 OA
HETATM   40  H   UNK N   1      31.816  41.593  62.503  0.00  0.00     0.210 HD
ENDBRANCH  16  39
TORSDOF 8
ENDMDL
MODEL 8
REMARK VINA RESULT:      -4.7      1.906      5.981
REMARK  8 active torsions:
REMARK  status: ('A' for Active; 'I' for Inactive)
REMARK    1  A    between atoms: C_7  and  O_8 
REMARK    2  A    between atoms: O_8  and  C_9 
REMARK    3  A    between atoms: C_12  and  O_13 
REMARK    4  A    between atoms: O_13  and  C_14 
REMARK    5  A    between atoms: C_18  and  O_19 
REMARK    6  A    between atoms: O_19  and  C_20 
REMARK    7  A    between atoms: C_20  and  C_22 
REMARK    8  A    between atoms: C_33  and  O_34 
ROOT
HETATM    1  O   UNK N   1      26.221  48.272  60.571  0.00  0.00    -0.297 OA
HETATM    2  C   UNK N   1      26.900  47.375  60.090  0.00  0.00     0.141 C 
HETATM    3  C   UNK N   1      28.355  47.672  59.672  0.00  0.00     0.031 C 
HETATM    4  C   UNK N   1      28.903  46.596  58.718  0.00  0.00    -0.014 C 
HETATM    5  C   UNK N   1      30.046  45.894  58.880  0.00  0.00    -0.023 C 
HETATM    6  C   UNK N   1      30.524  44.936  57.797  0.00  0.00     0.036 C 
HETATM    7  C   UNK N   1      30.817  43.472  58.260  0.00  0.00     0.175 C 
HETATM    8  C   UNK N   1      29.564  42.619  58.729  0.00  0.00     0.107 C 
HETATM    9  C   UNK N   1      29.042  43.021  60.138  0.00  0.00     0.076 C 
HETATM   10  C   UNK N   1      29.883  42.179  61.100  0.00  0.00     0.146 C 
HETATM   11  C   UNK N   1      29.880  40.811  60.432  0.00  0.00     0.015 C 
HETATM   12  C   UNK N   1      29.968  41.118  58.923  0.00  0.00     0.049 C 
HETATM   13  C   UNK N   1      30.979  39.871  60.932  0.00  0.00     0.012 C 
HETATM   14  C   UNK N   1      27.539  42.713  60.305  0.00  0.00    -0.011 C 
HETATM   15  C   UNK N   1      26.571  43.600  60.673  0.00  0.00    -0.058 C 
HETATM   16  C   UNK N   1      26.853  45.057  61.021  0.00  0.00     0.153 C 
HETATM   17  C   UNK N   1      26.280  46.001  59.949  0.00  0.00     0.115 C 
HETATM   18  C   UNK N   1      25.138  43.124  60.749  0.00  0.00     0.046 C 
HETATM   19  C   UNK N   1      31.790  45.541  57.171  0.00  0.00     0.017 C 
HETATM   20  C   UNK N   1      28.371  48.985  58.861  0.00  0.00     0.027 C 
HETATM   21  C   UNK N   1      29.216  47.884  60.938  0.00  0.00     0.027 C 
ENDROOT
BRANCH  10  22
HETATM   22  O   UNK N   1      29.306  42.146  62.359  0.00  0.00    -0.311 OA
BRANCH  22  23
HETATM   23  C   UNK N   1      29.568  43.004  63.379  0.00  0.00     0.293 C 
HETATM   24  O   UNK N   1      28.806  43.092  64.330  0.00  0.00    -0.259 OA
BRANCH  23  25
HETATM   25  C   UNK N   1      30.796  43.834  63.322  0.00  0.00     0.039 A 
HETATM   26  C   UNK N   1      32.029  43.325  63.770  0.00  0.00     0.017 A 
HETATM   27  C   UNK N   1      33.176  44.125  63.733  0.00  0.00     0.001 A 
HETATM   28  C   UNK N   1      33.105  45.433  63.247  0.00  0.00     0.000 A 
HETATM   29  C   UNK N   1      31.887  45.944  62.791  0.00  0.00     0.001 A 
HETATM   30  C   UNK N   1      30.736  45.151  62.828  0.00  0.00     0.017 A 
ENDBRANCH  23  25
ENDBRANCH  22  23
ENDBRANCH  10  22
BRANCH   8  31
HETATM   31  O   UNK N   1      28.534  42.757  57.798  0.00  0.00    -0.307 OA
BRANCH  31  32
HETATM   32  C   UNK N   1      28.297  41.966  56.715  0.00  0.00     0.255 C 
HETATM   33  O   UNK N   1      27.443  41.091  56.744  0.00  0.00    -0.266 OA
HETATM   34  C   UNK N   1      29.093  42.183  55.471  0.00  0.00     0.126 C 
ENDBRANCH  31  32
ENDBRANCH   8  31
BRANCH   7  35
HETATM   35  O   UNK N   1      31.821  43.480  59.218  0.00  0.00    -0.313 OA
BRANCH  35  36
HETATM   36  C   UNK N   1      33.032  42.870  59.098  0.00  0.00     0.255 C 
HETATM   37  O   UNK N   1      33.570  42.744  58.006  0.00  0.00    -0.266 OA
HETATM   38  C   UNK N   1      33.714  42.355  60.323  0.00  0.00     0.126 C 
ENDBRANCH  35  36
ENDBRANCH   7  35
BRANCH  16  39
HETATM   39  O   UNK N   1      26.308  45.345  62.285  0.00  0.00    -0.391 OA
HETATM   40  H   UNK N   1      26.668  46.223  62.577  0.00  0.00     0.210 HD
ENDBRANCH  16  39
TORSDOF 8
ENDMDL
MODEL 9
REMARK VINA RESULT:      -4.7      1.911      5.947
REMARK  8 active torsions:
REMARK  status: ('A' for Active; 'I' for Inactive)
REMARK    1  A    between atoms: C_7  and  O_8 
REMARK    2  A    between atoms: O_8  and  C_9 
REMARK    3  A    between atoms: C_12  and  O_13 
REMARK    4  A    between atoms: O_13  and  C_14 
REMARK    5  A    between atoms: C_18  and  O_19 
REMARK    6  A    between atoms: O_19  and  C_20 
REMARK    7  A    between atoms: C_20  and  C_22 
REMARK    8  A    between atoms: C_33  and  O_34 
ROOT
HETATM    1  O   UNK N   1      33.511  44.488  63.785  0.00  0.00    -0.297 OA
HETATM    2  C   UNK N   1      32.460  44.165  63.249  0.00  0.00     0.141 C 
HETATM    3  C   UNK N   1      31.219  45.064  63.421  0.00  0.00     0.031 C 
HETATM    4  C   UNK N   1      29.922  44.317  63.065  0.00  0.00    -0.014 C 
HETATM    5  C   UNK N   1      28.980  44.728  62.187  0.00  0.00    -0.023 C 
HETATM    6  C   UNK N   1      27.690  43.938  62.014  0.00  0.00     0.036 C 
HETATM    7  C   UNK N   1      27.340  43.511  60.551  0.00  0.00     0.175 C 
HETATM    8  C   UNK N   1      28.305  42.446  59.880  0.00  0.00     0.107 C 
HETATM    9  C   UNK N   1      29.670  43.048  59.439  0.00  0.00     0.076 C 
HETATM   10  C   UNK N   1      29.402  43.584  58.032  0.00  0.00     0.146 C 
HETATM   11  C   UNK N   1      28.603  42.456  57.394  0.00  0.00     0.015 C 
HETATM   12  C   UNK N   1      27.699  41.935  58.530  0.00  0.00     0.049 C 
HETATM   13  C   UNK N   1      27.833  42.869  56.138  0.00  0.00     0.012 C 
HETATM   14  C   UNK N   1      30.789  41.985  59.422  0.00  0.00    -0.011 C 
HETATM   15  C   UNK N   1      31.981  42.061  60.080  0.00  0.00    -0.058 C 
HETATM   16  C   UNK N   1      32.404  43.259  60.921  0.00  0.00     0.153 C 
HETATM   17  C   UNK N   1      32.437  42.900  62.417  0.00  0.00     0.115 C 
HETATM   18  C   UNK N   1      32.945  40.900  59.975  0.00  0.00     0.046 C 
HETATM   19  C   UNK N   1      26.546  44.790  62.588  0.00  0.00     0.017 C 
HETATM   20  C   UNK N   1      31.084  45.428  64.915  0.00  0.00     0.027 C 
HETATM   21  C   UNK N   1      31.425  46.375  62.629  0.00  0.00     0.027 C 
ENDROOT
BRANCH  10  22
HETATM   22  O   UNK N   1      30.591  43.823  57.361  0.00  0.00    -0.311 OA
BRANCH  22  23
HETATM   23  C   UNK N   1      31.393  44.908  57.523  0.00  0.00     0.293 C 
HETATM   24  O   UNK N   1      32.599  44.822  57.350  0.00  0.00    -0.259 OA
BRANCH  23  25
HETATM   25  C   UNK N   1      30.781  46.202  57.910  0.00  0.00     0.039 A 
HETATM   26  C   UNK N   1      30.240  46.385  59.196  0.00  0.00     0.017 A 
HETATM   27  C   UNK N   1      29.644  47.603  59.542  0.00  0.00     0.001 A 
HETATM   28  C   UNK N   1      29.587  48.646  58.615  0.00  0.00     0.000 A 
HETATM   29  C   UNK N   1      30.130  48.477  57.339  0.00  0.00     0.001 A 
HETATM   30  C   UNK N   1      30.724  47.262  56.985  0.00  0.00     0.017 A 
ENDBRANCH  23  25
ENDBRANCH  22  23
ENDBRANCH  10  22
BRANCH   8  31
HETATM   31  O   UNK N   1      28.529  41.397  60.772  0.00  0.00    -0.307 OA
BRANCH  31  32
HETATM   32  C   UNK N   1      27.893  40.193  60.797  0.00  0.00     0.255 C 
HETATM   33  O   UNK N   1      26.749  40.090  61.215  0.00  0.00    -0.266 OA
HETATM   34  C   UNK N   1      28.610  38.983  60.294  0.00  0.00     0.126 C 
ENDBRANCH  31  32
ENDBRANCH   8  31
BRANCH   7  35
HETATM   35  O   UNK N   1      27.193  44.642  59.761  0.00  0.00    -0.313 OA
BRANCH  35  36
HETATM   36  C   UNK N   1      26.107  44.934  58.993  0.00  0.00     0.255 C 
HETATM   37  O   UNK N   1      25.023  44.410  59.209  0.00  0.00    -0.266 OA
HETATM   38  C   UNK N   1      26.246  45.915  57.875  0.00  0.00     0.126 C 
ENDBRANCH  35  36
ENDBRANCH   7  35
BRANCH  16  39
HETATM   39  O   UNK N   1      33.664  43.708  60.486  0.00  0.00    -0.391 OA
HETATM   40  H   UNK N   1      33.515  44.415  59.806  0.00  0.00     0.210 HD
ENDBRANCH  16  39
TORSDOF 8
ENDMDL
