MODEL 1
REMARK VINA RESULT:      -4.7      0.000      0.000
REMARK  9 active torsions:
REMARK  status: ('A' for Active; 'I' for Inactive)
REMARK    1  A    between atoms: C_7  and  O_8 
REMARK    2  A    between atoms: O_8  and  C_9 
REMARK    3  A    between atoms: C_12  and  O_13 
REMARK    4  A    between atoms: O_13  and  C_14 
REMARK    5  A    between atoms: C_18  and  O_19 
REMARK    6  A    between atoms: O_19  and  C_20 
REMARK    7  A    between atoms: C_20  and  C_22 
REMARK    8  A    between atoms: C_29  and  O_30 
REMARK    9  A    between atoms: O_30  and  C_31 
ROOT
HETATM    1  O   UNK N   1      30.851  38.579  54.540  0.00  0.00    -0.297 OA
HETATM    2  C   UNK N   1      29.810  38.212  55.064  0.00  0.00     0.141 C 
HETATM    3  C   UNK N   1      29.702  36.773  55.588  0.00  0.00     0.031 C 
HETATM    4  C   UNK N   1      29.502  36.691  57.107  0.00  0.00    -0.014 C 
HETATM    5  C   UNK N   1      28.386  37.084  57.752  0.00  0.00    -0.023 C 
HETATM    6  C   UNK N   1      28.197  36.813  59.225  0.00  0.00     0.036 C 
HETATM    7  C   UNK N   1      27.818  38.079  60.055  0.00  0.00     0.175 C 
HETATM    8  C   UNK N   1      28.981  39.125  60.244  0.00  0.00     0.107 C 
HETATM    9  C   UNK N   1      29.350  40.002  58.996  0.00  0.00     0.076 C 
HETATM   10  C   UNK N   1      30.224  41.078  59.683  0.00  0.00     0.146 C 
HETATM   11  C   UNK N   1      29.439  41.465  60.943  0.00  0.00     0.015 C 
HETATM   12  C   UNK N   1      28.597  40.222  61.280  0.00  0.00     0.049 C 
HETATM   13  C   UNK N   1      30.355  41.915  62.084  0.00  0.00     0.012 C 
HETATM   14  C   UNK N   1      28.120  40.624  58.313  0.00  0.00    -0.011 C 
HETATM   15  C   UNK N   1      27.943  40.778  56.970  0.00  0.00    -0.057 C 
HETATM   16  C   UNK N   1      29.018  40.466  55.930  0.00  0.00     0.167 C 
HETATM   17  C   UNK N   1      28.656  39.194  55.124  0.00  0.00     0.116 C 
HETATM   18  C   UNK N   1      26.620  41.316  56.469  0.00  0.00     0.046 C 
HETATM   19  C   UNK N   1      27.095  35.743  59.327  0.00  0.00     0.017 C 
HETATM   20  C   UNK N   1      28.555  36.046  54.854  0.00  0.00     0.027 C 
HETATM   21  C   UNK N   1      31.012  36.007  55.265  0.00  0.00     0.027 C 
ENDROOT
BRANCH  10  22
HETATM   22  O   UNK N   1      30.511  42.193  58.911  0.00  0.00    -0.315 OA
BRANCH  22  23
HETATM   23  C   UNK N   1      31.765  42.616  58.600  0.00  0.00     0.258 C 
HETATM   24  O   UNK N   1      32.091  42.795  57.437  0.00  0.00    -0.265 OA
BRANCH  23  25
HETATM   25  C   UNK N   1      32.752  42.872  59.702  0.00  0.00     0.106 C 
HETATM   26  C   UNK N   1      33.793  41.761  59.780  0.00  0.00     0.015 C 
ENDBRANCH  23  25
ENDBRANCH  22  23
ENDBRANCH  10  22
BRANCH   8  27
HETATM   27  O   UNK N   1      30.148  38.456  60.630  0.00  0.00    -0.307 OA
BRANCH  27  28
HETATM   28  C   UNK N   1      30.409  37.826  61.811  0.00  0.00     0.255 C 
HETATM   29  O   UNK N   1      30.280  38.399  62.882  0.00  0.00    -0.266 OA
HETATM   30  C   UNK N   1      30.834  36.394  61.790  0.00  0.00     0.126 C 
ENDBRANCH  27  28
ENDBRANCH   8  27
BRANCH   7  31
HETATM   31  O   UNK N   1      27.420  37.655  61.318  0.00  0.00    -0.313 OA
BRANCH  31  32
HETATM   32  C   UNK N   1      26.221  37.929  61.902  0.00  0.00     0.255 C 
HETATM   33  O   UNK N   1      26.023  37.682  63.084  0.00  0.00    -0.266 OA
HETATM   34  C   UNK N   1      25.135  38.544  61.082  0.00  0.00     0.126 C 
ENDBRANCH  31  32
ENDBRANCH   7  31
BRANCH  16  35
HETATM   35  O   UNK N   1      29.111  41.560  55.078  0.00  0.00    -0.311 OA
BRANCH  35  36
HETATM   36  C   UNK N   1      30.050  41.738  54.114  0.00  0.00     0.255 C 
HETATM   37  O   UNK N   1      31.240  41.633  54.367  0.00  0.00    -0.266 OA
HETATM   38  C   UNK N   1      29.613  42.067  52.722  0.00  0.00     0.126 C 
ENDBRANCH  35  36
ENDBRANCH  16  35
TORSDOF 9
ENDMDL
MODEL 2
REMARK VINA RESULT:      -4.7     18.474     22.973
REMARK  9 active torsions:
REMARK  status: ('A' for Active; 'I' for Inactive)
REMARK    1  A    between atoms: C_7  and  O_8 
REMARK    2  A    between atoms: O_8  and  C_9 
REMARK    3  A    between atoms: C_12  and  O_13 
REMARK    4  A    between atoms: O_13  and  C_14 
REMARK    5  A    between atoms: C_18  and  O_19 
REMARK    6  A    between atoms: O_19  and  C_20 
REMARK    7  A    between atoms: C_20  and  C_22 
REMARK    8  A    between atoms: C_29  and  O_30 
REMARK    9  A    between atoms: O_30  and  C_31 
ROOT
HETATM    1  O   UNK N   1      41.886  51.553  62.189  0.00  0.00    -0.297 OA
HETATM    2  C   UNK N   1      42.939  51.729  62.783  0.00  0.00     0.141 C 
HETATM    3  C   UNK N   1      44.185  50.945  62.346  0.00  0.00     0.031 C 
HETATM    4  C   UNK N   1      45.315  51.841  61.821  0.00  0.00    -0.014 C 
HETATM    5  C   UNK N   1      46.030  52.691  62.583  0.00  0.00    -0.023 C 
HETATM    6  C   UNK N   1      47.238  53.411  62.030  0.00  0.00     0.036 C 
HETATM    7  C   UNK N   1      47.204  54.956  62.248  0.00  0.00     0.175 C 
HETATM    8  C   UNK N   1      46.153  55.730  61.368  0.00  0.00     0.107 C 
HETATM    9  C   UNK N   1      44.647  55.597  61.788  0.00  0.00     0.076 C 
HETATM   10  C   UNK N   1      44.038  56.740  60.941  0.00  0.00     0.146 C 
HETATM   11  C   UNK N   1      44.999  57.919  61.137  0.00  0.00     0.015 C 
HETATM   12  C   UNK N   1      46.357  57.271  61.463  0.00  0.00     0.049 C 
HETATM   13  C   UNK N   1      45.037  58.849  59.922  0.00  0.00     0.012 C 
HETATM   14  C   UNK N   1      44.419  55.825  63.292  0.00  0.00    -0.011 C 
HETATM   15  C   UNK N   1      43.540  55.143  64.080  0.00  0.00    -0.057 C 
HETATM   16  C   UNK N   1      42.540  54.118  63.548  0.00  0.00     0.167 C 
HETATM   17  C   UNK N   1      42.944  52.682  63.962  0.00  0.00     0.116 C 
HETATM   18  C   UNK N   1      43.525  55.429  65.566  0.00  0.00     0.046 C 
HETATM   19  C   UNK N   1      48.463  52.788  62.723  0.00  0.00     0.017 C 
HETATM   20  C   UNK N   1      44.686  50.081  63.523  0.00  0.00     0.027 C 
HETATM   21  C   UNK N   1      43.807  49.977  61.194  0.00  0.00     0.027 C 
ENDROOT
BRANCH  10  22
HETATM   22  O   UNK N   1      42.738  57.095  61.267  0.00  0.00    -0.315 OA
BRANCH  22  23
HETATM   23  C   UNK N   1      41.873  57.720  60.425  0.00  0.00     0.258 C 
HETATM   24  O   UNK N   1      41.780  57.374  59.258  0.00  0.00    -0.265 OA
BRANCH  23  25
HETATM   25  C   UNK N   1      41.020  58.841  60.944  0.00  0.00     0.106 C 
HETATM   26  C   UNK N   1      41.777  59.688  61.961  0.00  0.00     0.015 C 
ENDBRANCH  23  25
ENDBRANCH  22  23
ENDBRANCH  10  22
BRANCH   8  27
HETATM   27  O   UNK N   1      46.245  55.292  60.042  0.00  0.00    -0.307 OA
BRANCH  27  28
HETATM   28  C   UNK N   1      47.190  55.611  59.111  0.00  0.00     0.255 C 
HETATM   29  O   UNK N   1      47.233  56.718  58.598  0.00  0.00    -0.266 OA
HETATM   30  C   UNK N   1      48.212  54.587  58.736  0.00  0.00     0.126 C 
ENDBRANCH  27  28
ENDBRANCH   8  27
BRANCH   7  31
HETATM   31  O   UNK N   1      48.465  55.455  61.940  0.00  0.00    -0.313 OA
BRANCH  31  32
HETATM   32  C   UNK N   1      49.313  56.057  62.819  0.00  0.00     0.255 C 
HETATM   33  O   UNK N   1      50.472  56.301  62.512  0.00  0.00    -0.266 OA
HETATM   34  C   UNK N   1      48.814  56.426  64.177  0.00  0.00     0.126 C 
ENDBRANCH  31  32
ENDBRANCH   7  31
BRANCH  16  35
HETATM   35  O   UNK N   1      41.293  54.434  64.074  0.00  0.00    -0.311 OA
BRANCH  35  36
HETATM   36  C   UNK N   1      40.360  55.228  63.488  0.00  0.00     0.255 C 
HETATM   37  O   UNK N   1      39.641  54.801  62.598  0.00  0.00    -0.266 OA
HETATM   38  C   UNK N   1      40.217  56.644  63.945  0.00  0.00     0.126 C 
ENDBRANCH  35  36
ENDBRANCH  16  35
TORSDOF 9
ENDMDL
MODEL 3
REMARK VINA RESULT:      -4.6      4.071      8.057
REMARK  9 active torsions:
REMARK  status: ('A' for Active; 'I' for Inactive)
REMARK    1  A    between atoms: C_7  and  O_8 
REMARK    2  A    between atoms: O_8  and  C_9 
REMARK    3  A    between atoms: C_12  and  O_13 
REMARK    4  A    between atoms: O_13  and  C_14 
REMARK    5  A    between atoms: C_18  and  O_19 
REMARK    6  A    between atoms: O_19  and  C_20 
REMARK    7  A    between atoms: C_20  and  C_22 
REMARK    8  A    between atoms: C_29  and  O_30 
REMARK    9  A    between atoms: O_30  and  C_31 
ROOT
HETATM    1  O   UNK N   1      27.405  47.851  61.196  0.00  0.00    -0.297 OA
HETATM    2  C   UNK N   1      28.608  47.636  61.211  0.00  0.00     0.141 C 
HETATM    3  C   UNK N   1      29.278  47.219  62.528  0.00  0.00     0.031 C 
HETATM    4  C   UNK N   1      29.888  45.812  62.482  0.00  0.00    -0.014 C 
HETATM    5  C   UNK N   1      30.963  45.470  61.746  0.00  0.00    -0.023 C 
HETATM    6  C   UNK N   1      31.608  44.111  61.885  0.00  0.00     0.036 C 
HETATM    7  C   UNK N   1      31.794  43.360  60.530  0.00  0.00     0.175 C 
HETATM    8  C   UNK N   1      30.464  42.828  59.875  0.00  0.00     0.107 C 
HETATM    9  C   UNK N   1      29.533  43.897  59.202  0.00  0.00     0.076 C 
HETATM   10  C   UNK N   1      28.590  42.959  58.410  0.00  0.00     0.146 C 
HETATM   11  C   UNK N   1      29.526  41.937  57.754  0.00  0.00     0.015 C 
HETATM   12  C   UNK N   1      30.761  41.887  58.671  0.00  0.00     0.049 C 
HETATM   13  C   UNK N   1      28.854  40.577  57.551  0.00  0.00     0.012 C 
HETATM   14  C   UNK N   1      30.292  44.855  58.269  0.00  0.00    -0.011 C 
HETATM   15  C   UNK N   1      30.052  46.189  58.125  0.00  0.00    -0.057 C 
HETATM   16  C   UNK N   1      28.887  46.919  58.789  0.00  0.00     0.167 C 
HETATM   17  C   UNK N   1      29.387  47.843  59.926  0.00  0.00     0.116 C 
HETATM   18  C   UNK N   1      30.971  47.000  57.237  0.00  0.00     0.046 C 
HETATM   19  C   UNK N   1      32.966  44.349  62.570  0.00  0.00     0.017 C 
HETATM   20  C   UNK N   1      30.353  48.260  62.907  0.00  0.00     0.027 C 
HETATM   21  C   UNK N   1      28.222  47.215  63.664  0.00  0.00     0.027 C 
ENDROOT
BRANCH  10  22
HETATM   22  O   UNK N   1      27.788  43.581  57.466  0.00  0.00    -0.315 OA
BRANCH  22  23
HETATM   23  C   UNK N   1      26.443  43.413  57.363  0.00  0.00     0.258 C 
HETATM   24  O   UNK N   1      25.721  43.553  58.338  0.00  0.00    -0.265 OA
BRANCH  23  25
HETATM   25  C   UNK N   1      25.844  43.061  56.032  0.00  0.00     0.106 C 
HETATM   26  C   UNK N   1      26.915  42.613  55.044  0.00  0.00     0.015 C 
ENDBRANCH  23  25
ENDBRANCH  22  23
ENDBRANCH  10  22
BRANCH   8  27
HETATM   27  O   UNK N   1      29.697  42.175  60.846  0.00  0.00    -0.307 OA
BRANCH  27  28
HETATM   28  C   UNK N   1      29.712  40.854  61.186  0.00  0.00     0.255 C 
HETATM   29  O   UNK N   1      30.696  40.336  61.692  0.00  0.00    -0.266 OA
HETATM   30  C   UNK N   1      28.483  40.033  60.961  0.00  0.00     0.126 C 
ENDBRANCH  27  28
ENDBRANCH   8  27
BRANCH   7  31
HETATM   31  O   UNK N   1      32.620  42.267  60.762  0.00  0.00    -0.313 OA
BRANCH  31  32
HETATM   32  C   UNK N   1      33.676  41.895  59.987  0.00  0.00     0.255 C 
HETATM   33  O   UNK N   1      34.039  40.729  59.930  0.00  0.00    -0.266 OA
HETATM   34  C   UNK N   1      34.398  42.935  59.193  0.00  0.00     0.126 C 
ENDBRANCH  31  32
ENDBRANCH   7  31
BRANCH  16  35
HETATM   35  O   UNK N   1      28.247  47.670  57.810  0.00  0.00    -0.311 OA
BRANCH  35  36
HETATM   36  C   UNK N   1      26.905  47.753  57.622  0.00  0.00     0.255 C 
HETATM   37  O   UNK N   1      26.289  46.851  57.076  0.00  0.00    -0.266 OA
HETATM   38  C   UNK N   1      26.175  48.969  58.095  0.00  0.00     0.126 C 
ENDBRANCH  35  36
ENDBRANCH  16  35
TORSDOF 9
ENDMDL
MODEL 4
REMARK VINA RESULT:      -4.4      1.990      6.708
REMARK  9 active torsions:
REMARK  status: ('A' for Active; 'I' for Inactive)
REMARK    1  A    between atoms: C_7  and  O_8 
REMARK    2  A    between atoms: O_8  and  C_9 
REMARK    3  A    between atoms: C_12  and  O_13 
REMARK    4  A    between atoms: O_13  and  C_14 
REMARK    5  A    between atoms: C_18  and  O_19 
REMARK    6  A    between atoms: O_19  and  C_20 
REMARK    7  A    between atoms: C_20  and  C_22 
REMARK    8  A    between atoms: C_29  and  O_30 
REMARK    9  A    between atoms: O_30  and  C_31 
ROOT
HETATM    1  O   UNK N   1      31.397  42.347  59.933  0.00  0.00    -0.297 OA
HETATM    2  C   UNK N   1      30.623  42.647  59.035  0.00  0.00     0.141 C 
HETATM    3  C   UNK N   1      31.187  43.061  57.668  0.00  0.00     0.031 C 
HETATM    4  C   UNK N   1      30.794  42.106  56.534  0.00  0.00    -0.014 C 
HETATM    5  C   UNK N   1      29.542  41.965  56.055  0.00  0.00    -0.023 C 
HETATM    6  C   UNK N   1      29.264  41.134  54.824  0.00  0.00     0.036 C 
HETATM    7  C   UNK N   1      28.145  40.066  55.025  0.00  0.00     0.175 C 
HETATM    8  C   UNK N   1      28.543  38.848  55.941  0.00  0.00     0.107 C 
HETATM    9  C   UNK N   1      28.617  39.120  57.484  0.00  0.00     0.076 C 
HETATM   10  C   UNK N   1      28.669  37.664  58.004  0.00  0.00     0.146 C 
HETATM   11  C   UNK N   1      27.590  36.929  57.200  0.00  0.00     0.015 C 
HETATM   12  C   UNK N   1      27.470  37.721  55.885  0.00  0.00     0.049 C 
HETATM   13  C   UNK N   1      27.921  35.448  56.998  0.00  0.00     0.012 C 
HETATM   14  C   UNK N   1      27.386  39.869  58.023  0.00  0.00    -0.011 C 
HETATM   15  C   UNK N   1      27.395  40.837  58.982  0.00  0.00    -0.057 C 
HETATM   16  C   UNK N   1      28.640  41.241  59.771  0.00  0.00     0.167 C 
HETATM   17  C   UNK N   1      29.139  42.642  59.342  0.00  0.00     0.116 C 
HETATM   18  C   UNK N   1      26.098  41.542  59.314  0.00  0.00     0.046 C 
HETATM   19  C   UNK N   1      28.878  42.128  53.713  0.00  0.00     0.017 C 
HETATM   20  C   UNK N   1      30.733  44.500  57.342  0.00  0.00     0.027 C 
HETATM   21  C   UNK N   1      32.737  43.071  57.731  0.00  0.00     0.027 C 
ENDROOT
BRANCH  10  22
HETATM   22  O   UNK N   1      28.468  37.511  59.367  0.00  0.00    -0.315 OA
BRANCH  22  23
HETATM   23  C   UNK N   1      29.364  36.953  60.223  0.00  0.00     0.258 C 
HETATM   24  O   UNK N   1      29.145  35.866  60.735  0.00  0.00    -0.265 OA
BRANCH  23  25
HETATM   25  C   UNK N   1      30.640  37.683  60.534  0.00  0.00     0.106 C 
HETATM   26  C   UNK N   1      31.451  36.950  61.596  0.00  0.00     0.015 C 
ENDBRANCH  23  25
ENDBRANCH  22  23
ENDBRANCH  10  22
BRANCH   8  27
HETATM   27  O   UNK N   1      29.798  38.366  55.553  0.00  0.00    -0.307 OA
BRANCH  27  28
HETATM   28  C   UNK N   1      30.083  37.276  54.783  0.00  0.00     0.255 C 
HETATM   29  O   UNK N   1      29.631  37.155  53.655  0.00  0.00    -0.266 OA
HETATM   30  C   UNK N   1      30.996  36.224  55.326  0.00  0.00     0.126 C 
ENDBRANCH  27  28
ENDBRANCH   8  27
BRANCH   7  31
HETATM   31  O   UNK N   1      27.809  39.563  53.773  0.00  0.00    -0.313 OA
BRANCH  31  32
HETATM   32  C   UNK N   1      26.545  39.457  53.277  0.00  0.00     0.255 C 
HETATM   33  O   UNK N   1      26.249  38.572  52.486  0.00  0.00    -0.266 OA
HETATM   34  C   UNK N   1      25.506  40.436  53.715  0.00  0.00     0.126 C 
ENDBRANCH  31  32
ENDBRANCH   7  31
BRANCH  16  35
HETATM   35  O   UNK N   1      28.301  41.247  61.119  0.00  0.00    -0.311 OA
BRANCH  35  36
HETATM   36  C   UNK N   1      28.831  40.441  62.075  0.00  0.00     0.255 C 
HETATM   37  O   UNK N   1      29.977  40.599  62.467  0.00  0.00    -0.266 OA
HETATM   38  C   UNK N   1      27.992  39.347  62.654  0.00  0.00     0.126 C 
ENDBRANCH  35  36
ENDBRANCH  16  35
TORSDOF 9
ENDMDL
MODEL 5
REMARK VINA RESULT:      -4.4      4.233      6.886
REMARK  9 active torsions:
REMARK  status: ('A' for Active; 'I' for Inactive)
REMARK    1  A    between atoms: C_7  and  O_8 
REMARK    2  A    between atoms: O_8  and  C_9 
REMARK    3  A    between atoms: C_12  and  O_13 
REMARK    4  A    between atoms: O_13  and  C_14 
REMARK    5  A    between atoms: C_18  and  O_19 
REMARK    6  A    between atoms: O_19  and  C_20 
REMARK    7  A    between atoms: C_20  and  C_22 
REMARK    8  A    between atoms: C_29  and  O_30 
REMARK    9  A    between atoms: O_30  and  C_31 
ROOT
HETATM    1  O   UNK N   1      30.058  40.425  58.719  0.00  0.00    -0.297 OA
HETATM    2  C   UNK N   1      29.416  41.378  58.303  0.00  0.00     0.141 C 
HETATM    3  C   UNK N   1      27.887  41.365  58.435  0.00  0.00     0.031 C 
HETATM    4  C   UNK N   1      27.344  42.481  59.338  0.00  0.00    -0.014 C 
HETATM    5  C   UNK N   1      27.378  43.793  59.034  0.00  0.00    -0.023 C 
HETATM    6  C   UNK N   1      26.671  44.814  59.894  0.00  0.00     0.036 C 
HETATM    7  C   UNK N   1      27.581  46.003  60.336  0.00  0.00     0.175 C 
HETATM    8  C   UNK N   1      28.678  45.640  61.407  0.00  0.00     0.107 C 
HETATM    9  C   UNK N   1      29.918  44.826  60.897  0.00  0.00     0.076 C 
HETATM   10  C   UNK N   1      30.861  45.000  62.111  0.00  0.00     0.146 C 
HETATM   11  C   UNK N   1      30.757  46.488  62.469  0.00  0.00     0.015 C 
HETATM   12  C   UNK N   1      29.366  46.917  61.970  0.00  0.00     0.049 C 
HETATM   13  C   UNK N   1      30.982  46.746  63.961  0.00  0.00     0.012 C 
HETATM   14  C   UNK N   1      30.535  45.410  59.614  0.00  0.00    -0.011 C 
HETATM   15  C   UNK N   1      31.043  44.692  58.573  0.00  0.00    -0.057 C 
HETATM   16  C   UNK N   1      31.194  43.172  58.582  0.00  0.00     0.167 C 
HETATM   17  C   UNK N   1      30.170  42.507  57.629  0.00  0.00     0.116 C 
HETATM   18  C   UNK N   1      31.514  45.434  57.341  0.00  0.00     0.046 C 
HETATM   19  C   UNK N   1      25.476  45.319  59.065  0.00  0.00     0.017 C 
HETATM   20  C   UNK N   1      27.251  41.453  57.031  0.00  0.00     0.027 C 
HETATM   21  C   UNK N   1      27.434  40.020  59.061  0.00  0.00     0.027 C 
ENDROOT
BRANCH  10  22
HETATM   22  O   UNK N   1      32.179  44.628  61.900  0.00  0.00    -0.315 OA
BRANCH  22  23
HETATM   23  C   UNK N   1      32.928  43.903  62.772  0.00  0.00     0.258 C 
HETATM   24  O   UNK N   1      32.423  43.008  63.432  0.00  0.00    -0.265 OA
BRANCH  23  25
HETATM   25  C   UNK N   1      34.392  44.204  62.916  0.00  0.00     0.106 C 
HETATM   26  C   UNK N   1      34.620  45.654  63.329  0.00  0.00     0.015 C 
ENDBRANCH  23  25
ENDBRANCH  22  23
ENDBRANCH  10  22
BRANCH   8  27
HETATM   27  O   UNK N   1      28.093  44.890  62.434  0.00  0.00    -0.307 OA
BRANCH  27  28
HETATM   28  C   UNK N   1      27.598  45.331  63.625  0.00  0.00     0.255 C 
HETATM   29  O   UNK N   1      26.661  46.112  63.677  0.00  0.00    -0.266 OA
HETATM   30  C   UNK N   1      28.200  44.820  64.895  0.00  0.00     0.126 C 
ENDBRANCH  27  28
ENDBRANCH   8  27
BRANCH   7  31
HETATM   31  O   UNK N   1      26.761  46.982  60.884  0.00  0.00    -0.313 OA
BRANCH  31  32
HETATM   32  C   UNK N   1      26.658  48.266  60.441  0.00  0.00     0.255 C 
HETATM   33  O   UNK N   1      25.953  49.080  61.021  0.00  0.00    -0.266 OA
HETATM   34  C   UNK N   1      27.425  48.682  59.229  0.00  0.00     0.126 C 
ENDBRANCH  31  32
ENDBRANCH   7  31
BRANCH  16  35
HETATM   35  O   UNK N   1      32.489  42.874  58.174  0.00  0.00    -0.311 OA
BRANCH  35  36
HETATM   36  C   UNK N   1      33.554  42.675  58.993  0.00  0.00     0.255 C 
HETATM   37  O   UNK N   1      34.565  43.351  58.885  0.00  0.00    -0.266 OA
HETATM   38  C   UNK N   1      33.480  41.612  60.041  0.00  0.00     0.126 C 
ENDBRANCH  35  36
ENDBRANCH  16  35
TORSDOF 9
ENDMDL
MODEL 6
REMARK VINA RESULT:      -4.4     20.771     24.542
REMARK  9 active torsions:
REMARK  status: ('A' for Active; 'I' for Inactive)
REMARK    1  A    between atoms: C_7  and  O_8 
REMARK    2  A    between atoms: O_8  and  C_9 
REMARK    3  A    between atoms: C_12  and  O_13 
REMARK    4  A    between atoms: O_13  and  C_14 
REMARK    5  A    between atoms: C_18  and  O_19 
REMARK    6  A    between atoms: O_19  and  C_20 
REMARK    7  A    between atoms: C_20  and  C_22 
REMARK    8  A    between atoms: C_29  and  O_30 
REMARK    9  A    between atoms: O_30  and  C_31 
ROOT
HETATM    1  O   UNK N   1      27.748  50.681  40.705  0.00  0.00    -0.297 OA
HETATM    2  C   UNK N   1      27.382  51.289  39.710  0.00  0.00     0.141 C 
HETATM    3  C   UNK N   1      25.887  51.322  39.360  0.00  0.00     0.031 C 
HETATM    4  C   UNK N   1      25.283  52.731  39.402  0.00  0.00    -0.014 C 
HETATM    5  C   UNK N   1      25.581  53.715  38.531  0.00  0.00    -0.023 C 
HETATM    6  C   UNK N   1      24.818  55.019  38.532  0.00  0.00     0.036 C 
HETATM    7  C   UNK N   1      25.732  56.282  38.600  0.00  0.00     0.175 C 
HETATM    8  C   UNK N   1      26.437  56.521  39.988  0.00  0.00     0.107 C 
HETATM    9  C   UNK N   1      27.643  55.580  40.337  0.00  0.00     0.076 C 
HETATM   10  C   UNK N   1      28.238  56.352  41.538  0.00  0.00     0.146 C 
HETATM   11  C   UNK N   1      28.250  57.818  41.085  0.00  0.00     0.015 C 
HETATM   12  C   UNK N   1      27.120  57.919  40.046  0.00  0.00     0.049 C 
HETATM   13  C   UNK N   1      28.098  58.791  42.257  0.00  0.00     0.012 C 
HETATM   14  C   UNK N   1      28.658  55.451  39.189  0.00  0.00    -0.011 C 
HETATM   15  C   UNK N   1      29.323  54.316  38.832  0.00  0.00    -0.057 C 
HETATM   16  C   UNK N   1      29.252  53.007  39.616  0.00  0.00     0.167 C 
HETATM   17  C   UNK N   1      28.441  51.940  38.841  0.00  0.00     0.116 C 
HETATM   18  C   UNK N   1      30.208  54.349  37.605  0.00  0.00     0.046 C 
HETATM   19  C   UNK N   1      23.974  55.024  37.244  0.00  0.00     0.017 C 
HETATM   20  C   UNK N   1      25.673  50.685  37.970  0.00  0.00     0.027 C 
HETATM   21  C   UNK N   1      25.099  50.464  40.384  0.00  0.00     0.027 C 
ENDROOT
BRANCH  10  22
HETATM   22  O   UNK N   1      29.499  55.944  41.944  0.00  0.00    -0.315 OA
BRANCH  22  23
HETATM   23  C   UNK N   1      29.760  55.266  43.092  0.00  0.00     0.258 C 
HETATM   24  O   UNK N   1      28.895  54.593  43.629  0.00  0.00    -0.265 OA
BRANCH  23  25
HETATM   25  C   UNK N   1      31.132  55.345  43.699  0.00  0.00     0.106 C 
HETATM   26  C   UNK N   1      31.257  54.420  44.904  0.00  0.00     0.015 C 
ENDBRANCH  23  25
ENDBRANCH  22  23
ENDBRANCH  10  22
BRANCH   8  27
HETATM   27  O   UNK N   1      25.499  56.377  41.016  0.00  0.00    -0.307 OA
BRANCH  27  28
HETATM   28  C   UNK N   1      24.781  57.351  41.647  0.00  0.00     0.255 C 
HETATM   29  O   UNK N   1      23.974  58.041  41.044  0.00  0.00    -0.266 OA
HETATM   30  C   UNK N   1      24.968  57.553  43.116  0.00  0.00     0.126 C 
ENDBRANCH  27  28
ENDBRANCH   8  27
BRANCH   7  31
HETATM   31  O   UNK N   1      24.940  57.393  38.330  0.00  0.00    -0.313 OA
BRANCH  31  32
HETATM   32  C   UNK N   1      24.994  58.146  37.197  0.00  0.00     0.255 C 
HETATM   33  O   UNK N   1      24.001  58.722  36.773  0.00  0.00    -0.266 OA
HETATM   34  C   UNK N   1      26.291  58.272  36.467  0.00  0.00     0.126 C 
ENDBRANCH  31  32
ENDBRANCH   7  31
BRANCH  16  35
HETATM   35  O   UNK N   1      30.553  52.564  39.817  0.00  0.00    -0.311 OA
BRANCH  35  36
HETATM   36  C   UNK N   1      30.998  51.866  40.894  0.00  0.00     0.255 C 
HETATM   37  O   UNK N   1      31.248  52.429  41.949  0.00  0.00    -0.266 OA
HETATM   38  C   UNK N   1      31.180  50.387  40.780  0.00  0.00     0.126 C 
ENDBRANCH  35  36
ENDBRANCH  16  35
TORSDOF 9
ENDMDL
MODEL 7
REMARK VINA RESULT:      -4.3      2.483      6.417
REMARK  9 active torsions:
REMARK  status: ('A' for Active; 'I' for Inactive)
REMARK    1  A    between atoms: C_7  and  O_8 
REMARK    2  A    between atoms: O_8  and  C_9 
REMARK    3  A    between atoms: C_12  and  O_13 
REMARK    4  A    between atoms: O_13  and  C_14 
REMARK    5  A    between atoms: C_18  and  O_19 
REMARK    6  A    between atoms: O_19  and  C_20 
REMARK    7  A    between atoms: C_20  and  C_22 
REMARK    8  A    between atoms: C_29  and  O_30 
REMARK    9  A    between atoms: O_30  and  C_31 
ROOT
HETATM    1  O   UNK N   1      28.130  43.167  61.818  0.00  0.00    -0.297 OA
HETATM    2  C   UNK N   1      27.845  42.017  61.519  0.00  0.00     0.141 C 
HETATM    3  C   UNK N   1      26.375  41.653  61.265  0.00  0.00     0.031 C 
HETATM    4  C   UNK N   1      26.101  41.194  59.827  0.00  0.00    -0.014 C 
HETATM    5  C   UNK N   1      26.552  40.041  59.295  0.00  0.00    -0.023 C 
HETATM    6  C   UNK N   1      26.098  39.578  57.931  0.00  0.00     0.036 C 
HETATM    7  C   UNK N   1      27.271  39.220  56.965  0.00  0.00     0.175 C 
HETATM    8  C   UNK N   1      28.099  40.451  56.437  0.00  0.00     0.107 C 
HETATM    9  C   UNK N   1      29.087  41.125  57.453  0.00  0.00     0.076 C 
HETATM   10  C   UNK N   1      29.913  41.994  56.476  0.00  0.00     0.146 C 
HETATM   11  C   UNK N   1      30.220  41.062  55.297  0.00  0.00     0.015 C 
HETATM   12  C   UNK N   1      29.076  40.033  55.299  0.00  0.00     0.049 C 
HETATM   13  C   UNK N   1      30.362  41.822  53.976  0.00  0.00     0.012 C 
HETATM   14  C   UNK N   1      29.973  40.109  58.194  0.00  0.00    -0.011 C 
HETATM   15  C   UNK N   1      30.346  40.179  59.504  0.00  0.00    -0.057 C 
HETATM   16  C   UNK N   1      30.038  41.366  60.414  0.00  0.00     0.167 C 
HETATM   17  C   UNK N   1      28.963  40.995  61.464  0.00  0.00     0.116 C 
HETATM   18  C   UNK N   1      31.136  39.031  60.095  0.00  0.00     0.046 C 
HETATM   19  C   UNK N   1      25.195  38.355  58.171  0.00  0.00     0.017 C 
HETATM   20  C   UNK N   1      25.936  40.566  62.270  0.00  0.00     0.027 C 
HETATM   21  C   UNK N   1      25.484  42.897  61.518  0.00  0.00     0.027 C 
ENDROOT
BRANCH  10  22
HETATM   22  O   UNK N   1      31.076  42.537  57.000  0.00  0.00    -0.315 OA
BRANCH  22  23
HETATM   23  C   UNK N   1      31.259  43.855  57.275  0.00  0.00     0.258 C 
HETATM   24  O   UNK N   1      32.359  44.371  57.155  0.00  0.00    -0.265 OA
BRANCH  23  25
HETATM   25  C   UNK N   1      30.090  44.683  57.726  0.00  0.00     0.106 C 
HETATM   26  C   UNK N   1      30.509  46.119  58.019  0.00  0.00     0.015 C 
ENDBRANCH  23  25
ENDBRANCH  22  23
ENDBRANCH  10  22
BRANCH   8  27
HETATM   27  O   UNK N   1      27.220  41.450  56.003  0.00  0.00    -0.307 OA
BRANCH  27  28
HETATM   28  C   UNK N   1      26.732  41.657  54.746  0.00  0.00     0.255 C 
HETATM   29  O   UNK N   1      26.039  40.823  54.185  0.00  0.00    -0.266 OA
HETATM   30  C   UNK N   1      27.031  42.949  54.056  0.00  0.00     0.126 C 
ENDBRANCH  27  28
ENDBRANCH   8  27
BRANCH   7  31
HETATM   31  O   UNK N   1      26.728  38.569  55.863  0.00  0.00    -0.313 OA
BRANCH  31  32
HETATM   32  C   UNK N   1      27.080  37.329  55.425  0.00  0.00     0.255 C 
HETATM   33  O   UNK N   1      26.638  36.881  54.376  0.00  0.00    -0.266 OA
HETATM   34  C   UNK N   1      28.026  36.510  56.240  0.00  0.00     0.126 C 
ENDBRANCH  31  32
ENDBRANCH   7  31
BRANCH  16  35
HETATM   35  O   UNK N   1      31.219  41.730  61.047  0.00  0.00    -0.311 OA
BRANCH  35  36
HETATM   36  C   UNK N   1      32.077  42.698  60.635  0.00  0.00     0.255 C 
HETATM   37  O   UNK N   1      31.803  43.881  60.769  0.00  0.00    -0.266 OA
HETATM   38  C   UNK N   1      33.376  42.304  60.008  0.00  0.00     0.126 C 
ENDBRANCH  35  36
ENDBRANCH  16  35
TORSDOF 9
ENDMDL
MODEL 8
REMARK VINA RESULT:      -4.2      2.305      6.630
REMARK  9 active torsions:
REMARK  status: ('A' for Active; 'I' for Inactive)
REMARK    1  A    between atoms: C_7  and  O_8 
REMARK    2  A    between atoms: O_8  and  C_9 
REMARK    3  A    between atoms: C_12  and  O_13 
REMARK    4  A    between atoms: O_13  and  C_14 
REMARK    5  A    between atoms: C_18  and  O_19 
REMARK    6  A    between atoms: O_19  and  C_20 
REMARK    7  A    between atoms: C_20  and  C_22 
REMARK    8  A    between atoms: C_29  and  O_30 
REMARK    9  A    between atoms: O_30  and  C_31 
ROOT
HETATM    1  O   UNK N   1      30.990  43.647  60.421  0.00  0.00    -0.297 OA
HETATM    2  C   UNK N   1      30.620  43.799  59.266  0.00  0.00     0.141 C 
HETATM    3  C   UNK N   1      31.625  43.590  58.125  0.00  0.00     0.031 C 
HETATM    4  C   UNK N   1      31.256  42.429  57.193  0.00  0.00    -0.014 C 
HETATM    5  C   UNK N   1      30.200  42.427  56.358  0.00  0.00    -0.023 C 
HETATM    6  C   UNK N   1      30.001  41.320  55.349  0.00  0.00     0.036 C 
HETATM    7  C   UNK N   1      28.584  40.668  55.400  0.00  0.00     0.175 C 
HETATM    8  C   UNK N   1      28.309  39.769  56.665  0.00  0.00     0.107 C 
HETATM    9  C   UNK N   1      28.059  40.518  58.021  0.00  0.00     0.076 C 
HETATM   10  C   UNK N   1      27.498  39.349  58.864  0.00  0.00     0.146 C 
HETATM   11  C   UNK N   1      26.490  38.656  57.938  0.00  0.00     0.015 C 
HETATM   12  C   UNK N   1      26.983  38.968  56.514  0.00  0.00     0.049 C 
HETATM   13  C   UNK N   1      26.363  37.158  58.231  0.00  0.00     0.012 C 
HETATM   14  C   UNK N   1      27.042  41.665  57.897  0.00  0.00    -0.011 C 
HETATM   15  C   UNK N   1      27.113  42.869  58.533  0.00  0.00    -0.057 C 
HETATM   16  C   UNK N   1      28.167  43.215  59.583  0.00  0.00     0.167 C 
HETATM   17  C   UNK N   1      29.188  44.237  59.027  0.00  0.00     0.116 C 
HETATM   18  C   UNK N   1      26.076  43.922  58.209  0.00  0.00     0.046 C 
HETATM   19  C   UNK N   1      30.265  41.946  53.967  0.00  0.00     0.017 C 
HETATM   20  C   UNK N   1      31.766  44.901  57.322  0.00  0.00     0.027 C 
HETATM   21  C   UNK N   1      33.020  43.264  58.720  0.00  0.00     0.027 C 
ENDROOT
BRANCH  10  22
HETATM   22  O   UNK N   1      26.907  39.710  60.064  0.00  0.00    -0.315 OA
BRANCH  22  23
HETATM   23  C   UNK N   1      27.407  39.414  61.293  0.00  0.00     0.258 C 
HETATM   24  O   UNK N   1      26.696  39.465  62.284  0.00  0.00    -0.265 OA
BRANCH  23  25
HETATM   25  C   UNK N   1      28.848  39.013  61.425  0.00  0.00     0.106 C 
HETATM   26  C   UNK N   1      29.763  40.232  61.437  0.00  0.00     0.015 C 
ENDBRANCH  23  25
ENDBRANCH  22  23
ENDBRANCH  10  22
BRANCH   8  27
HETATM   27  O   UNK N   1      29.395  38.911  56.868  0.00  0.00    -0.307 OA
BRANCH  27  28
HETATM   28  C   UNK N   1      29.601  37.670  56.340  0.00  0.00     0.255 C 
HETATM   29  O   UNK N   1      29.829  37.512  55.151  0.00  0.00    -0.266 OA
HETATM   30  C   UNK N   1      29.577  36.483  57.248  0.00  0.00     0.126 C 
ENDBRANCH  27  28
ENDBRANCH   8  27
BRANCH   7  31
HETATM   31  O   UNK N   1      28.445  39.868  54.272  0.00  0.00    -0.313 OA
BRANCH  31  32
HETATM   32  C   UNK N   1      27.440  39.958  53.358  0.00  0.00     0.255 C 
HETATM   33  O   UNK N   1      27.178  39.025  52.612  0.00  0.00    -0.266 OA
HETATM   34  C   UNK N   1      26.645  41.220  53.272  0.00  0.00     0.126 C 
ENDBRANCH  31  32
ENDBRANCH   7  31
BRANCH  16  35
HETATM   35  O   UNK N   1      27.507  43.749  60.683  0.00  0.00    -0.311 OA
BRANCH  35  36
HETATM   36  C   UNK N   1      27.052  43.049  61.753  0.00  0.00     0.255 C 
HETATM   37  O   UNK N   1      27.810  42.699  62.645  0.00  0.00    -0.266 OA
HETATM   38  C   UNK N   1      25.599  42.705  61.836  0.00  0.00     0.126 C 
ENDBRANCH  35  36
ENDBRANCH  16  35
TORSDOF 9
ENDMDL
MODEL 9
REMARK VINA RESULT:      -4.0      2.033      6.111
REMARK  9 active torsions:
REMARK  status: ('A' for Active; 'I' for Inactive)
REMARK    1  A    between atoms: C_7  and  O_8 
REMARK    2  A    between atoms: O_8  and  C_9 
REMARK    3  A    between atoms: C_12  and  O_13 
REMARK    4  A    between atoms: O_13  and  C_14 
REMARK    5  A    between atoms: C_18  and  O_19 
REMARK    6  A    between atoms: O_19  and  C_20 
REMARK    7  A    between atoms: C_20  and  C_22 
REMARK    8  A    between atoms: C_29  and  O_30 
REMARK    9  A    between atoms: O_30  and  C_31 
ROOT
HETATM    1  O   UNK N   1      29.374  45.654  60.422  0.00  0.00    -0.297 OA
HETATM    2  C   UNK N   1      29.755  44.804  61.213  0.00  0.00     0.141 C 
HETATM    3  C   UNK N   1      28.843  44.408  62.384  0.00  0.00     0.031 C 
HETATM    4  C   UNK N   1      28.392  42.943  62.335  0.00  0.00    -0.014 C 
HETATM    5  C   UNK N   1      29.207  41.886  62.521  0.00  0.00    -0.023 C 
HETATM    6  C   UNK N   1      28.658  40.483  62.630  0.00  0.00     0.036 C 
HETATM    7  C   UNK N   1      29.342  39.464  61.666  0.00  0.00     0.175 C 
HETATM    8  C   UNK N   1      28.987  39.645  60.142  0.00  0.00     0.107 C 
HETATM    9  C   UNK N   1      29.656  40.856  59.402  0.00  0.00     0.076 C 
HETATM   10  C   UNK N   1      29.352  40.466  57.936  0.00  0.00     0.146 C 
HETATM   11  C   UNK N   1      29.691  38.973  57.857  0.00  0.00     0.015 C 
HETATM   12  C   UNK N   1      29.505  38.449  59.292  0.00  0.00     0.049 C 
HETATM   13  C   UNK N   1      28.841  38.237  56.818  0.00  0.00     0.012 C 
HETATM   14  C   UNK N   1      31.170  40.956  59.658  0.00  0.00    -0.011 C 
HETATM   15  C   UNK N   1      31.878  42.108  59.825  0.00  0.00    -0.057 C 
HETATM   16  C   UNK N   1      31.284  43.505  59.654  0.00  0.00     0.167 C 
HETATM   17  C   UNK N   1      31.140  44.218  61.021  0.00  0.00     0.116 C 
HETATM   18  C   UNK N   1      33.348  42.012  60.175  0.00  0.00     0.046 C 
HETATM   19  C   UNK N   1      28.848  40.060  64.098  0.00  0.00     0.017 C 
HETATM   20  C   UNK N   1      29.563  44.706  63.717  0.00  0.00     0.027 C 
HETATM   21  C   UNK N   1      27.558  45.276  62.352  0.00  0.00     0.027 C 
ENDROOT
BRANCH  10  22
HETATM   22  O   UNK N   1      30.040  41.187  56.973  0.00  0.00    -0.315 OA
BRANCH  22  23
HETATM   23  C   UNK N   1      29.455  41.875  55.957  0.00  0.00     0.258 C 
HETATM   24  O   UNK N   1      28.674  42.785  56.188  0.00  0.00    -0.265 OA
BRANCH  23  25
HETATM   25  C   UNK N   1      29.782  41.512  54.537  0.00  0.00     0.106 C 
HETATM   26  C   UNK N   1      28.720  42.032  53.574  0.00  0.00     0.015 C 
ENDBRANCH  23  25
ENDBRANCH  22  23
ENDBRANCH  10  22
BRANCH   8  27
HETATM   27  O   UNK N   1      27.603  39.799  60.003  0.00  0.00    -0.307 OA
BRANCH  27  28
HETATM   28  C   UNK N   1      26.631  38.851  60.137  0.00  0.00     0.255 C 
HETATM   29  O   UNK N   1      26.589  37.873  59.408  0.00  0.00    -0.266 OA
HETATM   30  C   UNK N   1      25.614  39.004  61.222  0.00  0.00     0.126 C 
ENDBRANCH  27  28
ENDBRANCH   8  27
BRANCH   7  31
HETATM   31  O   UNK N   1      28.941  38.188  62.046  0.00  0.00    -0.313 OA
BRANCH  31  32
HETATM   32  C   UNK N   1      29.775  37.160  62.368  0.00  0.00     0.255 C 
HETATM   33  O   UNK N   1      30.708  37.322  63.142  0.00  0.00    -0.266 OA
HETATM   34  C   UNK N   1      29.538  35.814  61.766  0.00  0.00     0.126 C 
ENDBRANCH  31  32
ENDBRANCH   7  31
BRANCH  16  35
HETATM   35  O   UNK N   1      32.134  44.227  58.825  0.00  0.00    -0.311 OA
BRANCH  35  36
HETATM   36  C   UNK N   1      31.856  44.631  57.559  0.00  0.00     0.255 C 
HETATM   37  O   UNK N   1      32.213  43.972  56.595  0.00  0.00    -0.266 OA
HETATM   38  C   UNK N   1      31.099  45.904  57.350  0.00  0.00     0.126 C 
ENDBRANCH  35  36
ENDBRANCH  16  35
TORSDOF 9
ENDMDL
