MODEL 1
REMARK VINA RESULT:      -4.9      0.000      0.000
REMARK  7 active torsions:
REMARK  status: ('A' for Active; 'I' for Inactive)
REMARK    1  A    between atoms: C_6  and  O_7 
REMARK    2  A    between atoms: O_7  and  C_8 
REMARK    3  A    between atoms: C_11  and  O_12 
REMARK    4  A    between atoms: O_12  and  C_13 
REMARK    5  A    between atoms: C_28  and  O_29 
REMARK    6  A    between atoms: O_29  and  C_30 
REMARK    7  A    between atoms: C_30  and  C_32 
ROOT
HETATM    1  O   UNK N   1      26.100  40.836  57.844  0.00  0.00    -0.292 OA
HETATM    2  C   UNK N   1      26.888  39.915  58.007  0.00  0.00     0.162 C 
HETATM    3  C   UNK N   1      28.307  40.071  57.627  0.00  0.00    -0.019 C 
HETATM    4  C   UNK N   1      28.927  41.218  58.006  0.00  0.00    -0.006 C 
HETATM    5  C   UNK N   1      30.425  41.473  57.925  0.00  0.00     0.076 C 
HETATM    6  C   UNK N   1      31.030  41.903  59.295  0.00  0.00     0.107 C 
HETATM    7  C   UNK N   1      30.546  41.090  60.564  0.00  0.00     0.175 C 
HETATM    8  C   UNK N   1      30.598  39.534  60.488  0.00  0.00     0.036 C 
HETATM    9  C   UNK N   1      30.036  38.936  61.781  0.00  0.00    -0.023 C 
HETATM   10  C   UNK N   1      28.938  38.144  61.933  0.00  0.00    -0.014 C 
HETATM   11  C   UNK N   1      27.981  37.649  60.836  0.00  0.00     0.031 C 
HETATM   12  C   UNK N   1      27.277  38.836  60.165  0.00  0.00     0.145 C 
HETATM   13  C   UNK N   1      26.488  38.737  58.864  0.00  0.00     0.163 C 
HETATM   14  O   UNK N   1      27.243  39.904  60.765  0.00  0.00    -0.296 OA
HETATM   15  C   UNK N   1      26.862  36.815  61.500  0.00  0.00     0.027 C 
HETATM   16  C   UNK N   1      28.749  36.699  59.888  0.00  0.00     0.027 C 
HETATM   17  C   UNK N   1      32.020  38.999  60.284  0.00  0.00     0.017 C 
HETATM   18  C   UNK N   1      30.557  43.383  59.382  0.00  0.00     0.049 C 
HETATM   19  C   UNK N   1      30.394  43.890  57.931  0.00  0.00     0.015 C 
HETATM   20  C   UNK N   1      30.783  42.683  57.048  0.00  0.00     0.146 C 
HETATM   21  C   UNK N   1      31.190  45.173  57.676  0.00  0.00     0.012 C 
HETATM   22  C   UNK N   1      28.973  38.911  56.913  0.00  0.00     0.052 C 
ENDROOT
BRANCH  20  23
HETATM   23  O   UNK N   1      30.139  42.633  55.823  0.00  0.00    -0.315 OA
BRANCH  23  24
HETATM   24  C   UNK N   1      30.504  41.831  54.790  0.00  0.00     0.258 C 
HETATM   25  O   UNK N   1      31.683  41.649  54.528  0.00  0.00    -0.265 OA
BRANCH  24  26
HETATM   26  C   UNK N   1      29.428  41.155  53.986  0.00  0.00     0.106 C 
HETATM   27  C   UNK N   1      28.029  41.688  54.296  0.00  0.00     0.015 C 
ENDBRANCH  24  26
ENDBRANCH  23  24
ENDBRANCH  20  23
BRANCH   6  28
HETATM   28  O   UNK N   1      32.414  41.851  59.102  0.00  0.00    -0.307 OA
BRANCH  28  29
HETATM   29  C   UNK N   1      33.368  42.781  59.380  0.00  0.00     0.255 C 
HETATM   30  O   UNK N   1      33.928  43.408  58.494  0.00  0.00    -0.266 OA
HETATM   31  C   UNK N   1      33.780  42.977  60.803  0.00  0.00     0.126 C 
ENDBRANCH  28  29
ENDBRANCH   6  28
BRANCH   7  32
HETATM   32  O   UNK N   1      31.227  41.526  61.692  0.00  0.00    -0.313 OA
BRANCH  32  33
HETATM   33  C   UNK N   1      30.678  42.228  62.721  0.00  0.00     0.255 C 
HETATM   34  O   UNK N   1      31.368  42.643  63.641  0.00  0.00    -0.266 OA
HETATM   35  C   UNK N   1      29.208  42.497  62.718  0.00  0.00     0.126 C 
ENDBRANCH  32  33
ENDBRANCH   7  32
TORSDOF 7
ENDMDL
MODEL 2
REMARK VINA RESULT:      -4.6      2.106      5.687
REMARK  7 active torsions:
REMARK  status: ('A' for Active; 'I' for Inactive)
REMARK    1  A    between atoms: C_6  and  O_7 
REMARK    2  A    between atoms: O_7  and  C_8 
REMARK    3  A    between atoms: C_11  and  O_12 
REMARK    4  A    between atoms: O_12  and  C_13 
REMARK    5  A    between atoms: C_28  and  O_29 
REMARK    6  A    between atoms: O_29  and  C_30 
REMARK    7  A    between atoms: C_30  and  C_32 
ROOT
HETATM    1  O   UNK N   1      32.324  42.951  56.202  0.00  0.00    -0.292 OA
HETATM    2  C   UNK N   1      31.381  43.265  56.914  0.00  0.00     0.162 C 
HETATM    3  C   UNK N   1      30.055  42.645  56.712  0.00  0.00    -0.019 C 
HETATM    4  C   UNK N   1      30.019  41.298  56.549  0.00  0.00    -0.006 C 
HETATM    5  C   UNK N   1      28.759  40.446  56.565  0.00  0.00     0.076 C 
HETATM    6  C   UNK N   1      28.836  39.288  57.604  0.00  0.00     0.107 C 
HETATM    7  C   UNK N   1      29.425  39.659  59.027  0.00  0.00     0.175 C 
HETATM    8  C   UNK N   1      28.836  40.909  59.748  0.00  0.00     0.036 C 
HETATM    9  C   UNK N   1      29.572  41.133  61.073  0.00  0.00    -0.023 C 
HETATM   10  C   UNK N   1      30.327  42.204  61.444  0.00  0.00    -0.014 C 
HETATM   11  C   UNK N   1      30.631  43.467  60.619  0.00  0.00     0.031 C 
HETATM   12  C   UNK N   1      31.416  43.101  59.352  0.00  0.00     0.145 C 
HETATM   13  C   UNK N   1      31.634  44.051  58.180  0.00  0.00     0.163 C 
HETATM   14  O   UNK N   1      32.005  42.027  59.325  0.00  0.00    -0.296 OA
HETATM   15  C   UNK N   1      31.564  44.380  61.445  0.00  0.00     0.027 C 
HETATM   16  C   UNK N   1      29.317  44.250  60.394  0.00  0.00     0.027 C 
HETATM   17  C   UNK N   1      27.339  40.771  60.044  0.00  0.00     0.017 C 
HETATM   18  C   UNK N   1      29.773  38.286  56.870  0.00  0.00     0.049 C 
HETATM   19  C   UNK N   1      29.590  38.526  55.355  0.00  0.00     0.015 C 
HETATM   20  C   UNK N   1      28.547  39.662  55.260  0.00  0.00     0.146 C 
HETATM   21  C   UNK N   1      29.229  37.240  54.607  0.00  0.00     0.012 C 
HETATM   22  C   UNK N   1      28.841  43.552  56.779  0.00  0.00     0.052 C 
ENDROOT
BRANCH  20  23
HETATM   23  O   UNK N   1      28.680  40.476  54.148  0.00  0.00    -0.315 OA
BRANCH  23  24
HETATM   24  C   UNK N   1      27.737  41.353  53.716  0.00  0.00     0.258 C 
HETATM   25  O   UNK N   1      26.549  41.087  53.806  0.00  0.00    -0.265 OA
BRANCH  24  26
HETATM   26  C   UNK N   1      28.186  42.668  53.140  0.00  0.00     0.106 C 
HETATM   27  C   UNK N   1      29.204  42.508  52.012  0.00  0.00     0.015 C 
ENDBRANCH  24  26
ENDBRANCH  23  24
ENDBRANCH  20  23
BRANCH   6  28
HETATM   28  O   UNK N   1      27.536  38.777  57.662  0.00  0.00    -0.307 OA
BRANCH  28  29
HETATM   29  C   UNK N   1      27.107  37.486  57.679  0.00  0.00     0.255 C 
HETATM   30  O   UNK N   1      27.477  36.700  58.538  0.00  0.00    -0.266 OA
HETATM   31  C   UNK N   1      26.221  37.013  56.572  0.00  0.00     0.126 C 
ENDBRANCH  28  29
ENDBRANCH   6  28
BRANCH   7  32
HETATM   32  O   UNK N   1      29.354  38.557  59.868  0.00  0.00    -0.313 OA
BRANCH  32  33
HETATM   33  C   UNK N   1      30.416  37.813  60.281  0.00  0.00     0.255 C 
HETATM   34  O   UNK N   1      30.268  36.666  60.678  0.00  0.00    -0.266 OA
HETATM   35  C   UNK N   1      31.785  38.411  60.242  0.00  0.00     0.126 C 
ENDBRANCH  32  33
ENDBRANCH   7  32
TORSDOF 7
ENDMDL
MODEL 3
REMARK VINA RESULT:      -4.4      4.007      6.143
REMARK  7 active torsions:
REMARK  status: ('A' for Active; 'I' for Inactive)
REMARK    1  A    between atoms: C_6  and  O_7 
REMARK    2  A    between atoms: O_7  and  C_8 
REMARK    3  A    between atoms: C_11  and  O_12 
REMARK    4  A    between atoms: O_12  and  C_13 
REMARK    5  A    between atoms: C_28  and  O_29 
REMARK    6  A    between atoms: O_29  and  C_30 
REMARK    7  A    between atoms: C_30  and  C_32 
ROOT
HETATM    1  O   UNK N   1      28.917  43.271  56.666  0.00  0.00    -0.292 OA
HETATM    2  C   UNK N   1      29.957  43.414  57.292  0.00  0.00     0.162 C 
HETATM    3  C   UNK N   1      30.349  44.748  57.793  0.00  0.00    -0.019 C 
HETATM    4  C   UNK N   1      29.389  45.484  58.411  0.00  0.00    -0.006 C 
HETATM    5  C   UNK N   1      29.636  46.763  59.197  0.00  0.00     0.076 C 
HETATM    6  C   UNK N   1      29.066  46.691  60.645  0.00  0.00     0.107 C 
HETATM    7  C   UNK N   1      29.326  45.344  61.437  0.00  0.00     0.175 C 
HETATM    8  C   UNK N   1      30.785  44.797  61.471  0.00  0.00     0.036 C 
HETATM    9  C   UNK N   1      30.819  43.466  62.229  0.00  0.00    -0.023 C 
HETATM   10  C   UNK N   1      31.167  42.238  61.754  0.00  0.00    -0.014 C 
HETATM   11  C   UNK N   1      31.617  41.877  60.328  0.00  0.00     0.031 C 
HETATM   12  C   UNK N   1      30.493  42.166  59.324  0.00  0.00     0.145 C 
HETATM   13  C   UNK N   1      30.686  42.197  57.812  0.00  0.00     0.163 C 
HETATM   14  O   UNK N   1      29.347  42.261  59.748  0.00  0.00    -0.296 OA
HETATM   15  C   UNK N   1      31.862  40.353  60.261  0.00  0.00     0.027 C 
HETATM   16  C   UNK N   1      32.971  42.565  60.038  0.00  0.00     0.027 C 
HETATM   17  C   UNK N   1      31.763  45.764  62.147  0.00  0.00     0.017 C 
HETATM   18  C   UNK N   1      27.544  46.881  60.380  0.00  0.00     0.049 C 
HETATM   19  C   UNK N   1      27.415  47.708  59.081  0.00  0.00     0.015 C 
HETATM   20  C   UNK N   1      28.871  47.971  58.635  0.00  0.00     0.146 C 
HETATM   21  C   UNK N   1      26.552  48.958  59.276  0.00  0.00     0.012 C 
HETATM   22  C   UNK N   1      31.803  45.153  57.645  0.00  0.00     0.052 C 
ENDROOT
BRANCH  20  23
HETATM   23  O   UNK N   1      29.042  48.093  57.267  0.00  0.00    -0.315 OA
BRANCH  23  24
HETATM   24  C   UNK N   1      29.256  49.266  56.617  0.00  0.00     0.258 C 
HETATM   25  O   UNK N   1      28.321  49.986  56.305  0.00  0.00    -0.265 OA
BRANCH  24  26
HETATM   26  C   UNK N   1      30.671  49.669  56.302  0.00  0.00     0.106 C 
HETATM   27  C   UNK N   1      30.756  50.966  55.500  0.00  0.00     0.015 C 
ENDBRANCH  24  26
ENDBRANCH  23  24
ENDBRANCH  20  23
BRANCH   6  28
HETATM   28  O   UNK N   1      29.587  47.817  61.288  0.00  0.00    -0.307 OA
BRANCH  28  29
HETATM   29  C   UNK N   1      28.970  48.727  62.089  0.00  0.00     0.255 C 
HETATM   30  O   UNK N   1      28.383  48.390  63.106  0.00  0.00    -0.266 OA
HETATM   31  C   UNK N   1      28.956  50.159  61.664  0.00  0.00     0.126 C 
ENDBRANCH  28  29
ENDBRANCH   6  28
BRANCH   7  32
HETATM   32  O   UNK N   1      28.838  45.456  62.731  0.00  0.00    -0.313 OA
BRANCH  32  33
HETATM   33  C   UNK N   1      27.684  44.896  63.188  0.00  0.00     0.255 C 
HETATM   34  O   UNK N   1      27.105  45.351  64.165  0.00  0.00    -0.266 OA
HETATM   35  C   UNK N   1      27.117  43.710  62.478  0.00  0.00     0.126 C 
ENDBRANCH  32  33
ENDBRANCH   7  32
TORSDOF 7
ENDMDL
MODEL 4
REMARK VINA RESULT:      -4.1      1.955      5.521
REMARK  7 active torsions:
REMARK  status: ('A' for Active; 'I' for Inactive)
REMARK    1  A    between atoms: C_6  and  O_7 
REMARK    2  A    between atoms: O_7  and  C_8 
REMARK    3  A    between atoms: C_11  and  O_12 
REMARK    4  A    between atoms: O_12  and  C_13 
REMARK    5  A    between atoms: C_28  and  O_29 
REMARK    6  A    between atoms: O_29  and  C_30 
REMARK    7  A    between atoms: C_30  and  C_32 
ROOT
HETATM    1  O   UNK N   1      30.568  37.296  60.012  0.00  0.00    -0.292 OA
HETATM    2  C   UNK N   1      29.495  37.799  59.711  0.00  0.00     0.162 C 
HETATM    3  C   UNK N   1      29.155  39.162  60.170  0.00  0.00    -0.019 C 
HETATM    4  C   UNK N   1      30.111  40.117  60.038  0.00  0.00    -0.006 C 
HETATM    5  C   UNK N   1      29.890  41.611  60.225  0.00  0.00     0.076 C 
HETATM    6  C   UNK N   1      30.342  42.439  58.985  0.00  0.00     0.107 C 
HETATM    7  C   UNK N   1      29.934  41.862  57.567  0.00  0.00     0.175 C 
HETATM    8  C   UNK N   1      28.443  41.460  57.354  0.00  0.00     0.036 C 
HETATM    9  C   UNK N   1      28.264  40.874  55.950  0.00  0.00    -0.023 C 
HETATM   10  C   UNK N   1      27.873  39.615  55.609  0.00  0.00    -0.014 C 
HETATM   11  C   UNK N   1      27.511  38.458  56.555  0.00  0.00     0.031 C 
HETATM   12  C   UNK N   1      28.724  38.063  57.407  0.00  0.00     0.145 C 
HETATM   13  C   UNK N   1      28.650  37.161  58.633  0.00  0.00     0.163 C 
HETATM   14  O   UNK N   1      29.838  38.392  57.016  0.00  0.00    -0.296 OA
HETATM   15  C   UNK N   1      27.171  37.214  55.703  0.00  0.00     0.027 C 
HETATM   16  C   UNK N   1      26.231  38.830  57.339  0.00  0.00     0.027 C 
HETATM   17  C   UNK N   1      27.483  42.644  57.511  0.00  0.00     0.017 C 
HETATM   18  C   UNK N   1      31.889  42.419  59.157  0.00  0.00     0.049 C 
HETATM   19  C   UNK N   1      32.172  42.273  60.669  0.00  0.00     0.015 C 
HETATM   20  C   UNK N   1      30.774  42.216  61.326  0.00  0.00     0.146 C 
HETATM   21  C   UNK N   1      33.097  43.375  61.191  0.00  0.00     0.012 C 
HETATM   22  C   UNK N   1      27.746  39.398  60.681  0.00  0.00     0.052 C 
ENDROOT
BRANCH  20  23
HETATM   23  O   UNK N   1      30.716  41.473  62.493  0.00  0.00    -0.315 OA
BRANCH  23  24
HETATM   24  C   UNK N   1      29.641  41.420  63.322  0.00  0.00     0.258 C 
HETATM   25  O   UNK N   1      29.374  40.397  63.933  0.00  0.00    -0.265 OA
BRANCH  24  26
HETATM   26  C   UNK N   1      28.795  42.653  63.486  0.00  0.00     0.106 C 
HETATM   27  C   UNK N   1      27.378  42.480  62.940  0.00  0.00     0.015 C 
ENDBRANCH  24  26
ENDBRANCH  23  24
ENDBRANCH  20  23
BRANCH   6  28
HETATM   28  O   UNK N   1      29.849  43.726  59.220  0.00  0.00    -0.307 OA
BRANCH  28  29
HETATM   29  C   UNK N   1      30.493  44.924  59.193  0.00  0.00     0.255 C 
HETATM   30  O   UNK N   1      30.707  45.558  60.214  0.00  0.00    -0.266 OA
HETATM   31  C   UNK N   1      30.876  45.498  57.867  0.00  0.00     0.126 C 
ENDBRANCH  28  29
ENDBRANCH   6  28
BRANCH   7  32
HETATM   32  O   UNK N   1      30.329  42.743  56.569  0.00  0.00    -0.313 OA
BRANCH  32  33
HETATM   33  C   UNK N   1      31.363  42.542  55.707  0.00  0.00     0.255 C 
HETATM   34  O   UNK N   1      32.460  43.043  55.909  0.00  0.00    -0.266 OA
HETATM   35  C   UNK N   1      31.149  41.692  54.497  0.00  0.00     0.126 C 
ENDBRANCH  32  33
ENDBRANCH   7  32
TORSDOF 7
ENDMDL
MODEL 5
REMARK VINA RESULT:      -4.1      2.527      4.664
REMARK  7 active torsions:
REMARK  status: ('A' for Active; 'I' for Inactive)
REMARK    1  A    between atoms: C_6  and  O_7 
REMARK    2  A    between atoms: O_7  and  C_8 
REMARK    3  A    between atoms: C_11  and  O_12 
REMARK    4  A    between atoms: O_12  and  C_13 
REMARK    5  A    between atoms: C_28  and  O_29 
REMARK    6  A    between atoms: O_29  and  C_30 
REMARK    7  A    between atoms: C_30  and  C_32 
ROOT
HETATM    1  O   UNK N   1      27.928  44.605  62.906  0.00  0.00    -0.292 OA
HETATM    2  C   UNK N   1      27.670  43.563  62.320  0.00  0.00     0.162 C 
HETATM    3  C   UNK N   1      27.615  43.532  60.843  0.00  0.00    -0.019 C 
HETATM    4  C   UNK N   1      28.624  44.146  60.173  0.00  0.00    -0.006 C 
HETATM    5  C   UNK N   1      28.882  44.028  58.678  0.00  0.00     0.076 C 
HETATM    6  C   UNK N   1      30.332  43.558  58.360  0.00  0.00     0.107 C 
HETATM    7  C   UNK N   1      30.896  42.370  59.243  0.00  0.00     0.175 C 
HETATM    8  C   UNK N   1      30.005  41.100  59.397  0.00  0.00     0.036 C 
HETATM    9  C   UNK N   1      30.694  40.098  60.329  0.00  0.00    -0.023 C 
HETATM   10  C   UNK N   1      30.258  39.634  61.533  0.00  0.00    -0.014 C 
HETATM   11  C   UNK N   1      28.956  40.003  62.264  0.00  0.00     0.031 C 
HETATM   12  C   UNK N   1      28.943  41.498  62.612  0.00  0.00     0.145 C 
HETATM   13  C   UNK N   1      27.705  42.255  63.075  0.00  0.00     0.163 C 
HETATM   14  O   UNK N   1      30.012  42.097  62.634  0.00  0.00    -0.296 OA
HETATM   15  C   UNK N   1      28.923  39.255  63.616  0.00  0.00     0.027 C 
HETATM   16  C   UNK N   1      27.753  39.494  61.438  0.00  0.00     0.027 C 
HETATM   17  C   UNK N   1      29.728  40.406  58.059  0.00  0.00     0.017 C 
HETATM   18  C   UNK N   1      31.138  44.863  58.623  0.00  0.00     0.049 C 
HETATM   19  C   UNK N   1      30.177  46.044  58.363  0.00  0.00     0.015 C 
HETATM   20  C   UNK N   1      28.842  45.383  57.953  0.00  0.00     0.146 C 
HETATM   21  C   UNK N   1      30.751  47.043  57.354  0.00  0.00     0.012 C 
HETATM   22  C   UNK N   1      26.482  42.756  60.201  0.00  0.00     0.052 C 
ENDROOT
BRANCH  20  23
HETATM   23  O   UNK N   1      27.712  46.109  58.289  0.00  0.00    -0.315 OA
BRANCH  23  24
HETATM   24  C   UNK N   1      27.556  47.440  58.071  0.00  0.00     0.258 C 
HETATM   25  O   UNK N   1      27.357  47.869  56.945  0.00  0.00    -0.265 OA
BRANCH  24  26
HETATM   26  C   UNK N   1      27.615  48.375  59.248  0.00  0.00     0.106 C 
HETATM   27  C   UNK N   1      27.444  47.660  60.587  0.00  0.00     0.015 C 
ENDBRANCH  24  26
ENDBRANCH  23  24
ENDBRANCH  20  23
BRANCH   6  28
HETATM   28  O   UNK N   1      30.318  43.269  56.991  0.00  0.00    -0.307 OA
BRANCH  28  29
HETATM   29  C   UNK N   1      31.355  43.069  56.133  0.00  0.00     0.255 C 
HETATM   30  O   UNK N   1      32.349  43.777  56.154  0.00  0.00    -0.266 OA
HETATM   31  C   UNK N   1      31.226  41.999  55.097  0.00  0.00     0.126 C 
ENDBRANCH  28  29
ENDBRANCH   6  28
BRANCH   7  32
HETATM   32  O   UNK N   1      32.157  42.005  58.792  0.00  0.00    -0.313 OA
BRANCH  32  33
HETATM   33  C   UNK N   1      33.335  42.457  59.301  0.00  0.00     0.255 C 
HETATM   34  O   UNK N   1      34.299  42.663  58.577  0.00  0.00    -0.266 OA
HETATM   35  C   UNK N   1      33.447  42.709  60.770  0.00  0.00     0.126 C 
ENDBRANCH  32  33
ENDBRANCH   7  32
TORSDOF 7
ENDMDL
MODEL 6
REMARK VINA RESULT:      -4.0     18.428     21.500
REMARK  7 active torsions:
REMARK  status: ('A' for Active; 'I' for Inactive)
REMARK    1  A    between atoms: C_6  and  O_7 
REMARK    2  A    between atoms: O_7  and  C_8 
REMARK    3  A    between atoms: C_11  and  O_12 
REMARK    4  A    between atoms: O_12  and  C_13 
REMARK    5  A    between atoms: C_28  and  O_29 
REMARK    6  A    between atoms: O_29  and  C_30 
REMARK    7  A    between atoms: C_30  and  C_32 
ROOT
HETATM    1  O   UNK N   1      46.698  55.167  62.964  0.00  0.00    -0.292 OA
HETATM    2  C   UNK N   1      46.046  54.270  62.447  0.00  0.00     0.162 C 
HETATM    3  C   UNK N   1      46.544  53.591  61.233  0.00  0.00    -0.019 C 
HETATM    4  C   UNK N   1      47.848  53.211  61.227  0.00  0.00    -0.006 C 
HETATM    5  C   UNK N   1      48.491  52.301  60.190  0.00  0.00     0.076 C 
HETATM    6  C   UNK N   1      49.201  51.074  60.835  0.00  0.00     0.107 C 
HETATM    7  C   UNK N   1      48.415  50.336  61.995  0.00  0.00     0.175 C 
HETATM    8  C   UNK N   1      46.932  49.940  61.723  0.00  0.00     0.036 C 
HETATM    9  C   UNK N   1      46.334  49.295  62.978  0.00  0.00    -0.023 C 
HETATM   10  C   UNK N   1      45.292  49.739  63.735  0.00  0.00    -0.014 C 
HETATM   11  C   UNK N   1      44.451  51.008  63.519  0.00  0.00     0.031 C 
HETATM   12  C   UNK N   1      45.330  52.260  63.639  0.00  0.00     0.145 C 
HETATM   13  C   UNK N   1      44.894  53.655  63.206  0.00  0.00     0.163 C 
HETATM   14  O   UNK N   1      46.402  52.161  64.224  0.00  0.00    -0.296 OA
HETATM   15  C   UNK N   1      43.413  51.110  64.659  0.00  0.00     0.027 C 
HETATM   16  C   UNK N   1      43.657  50.868  62.199  0.00  0.00     0.027 C 
HETATM   17  C   UNK N   1      46.787  48.957  60.557  0.00  0.00     0.017 C 
HETATM   18  C   UNK N   1      50.498  51.733  61.389  0.00  0.00     0.049 C 
HETATM   19  C   UNK N   1      50.797  52.958  60.496  0.00  0.00     0.015 C 
HETATM   20  C   UNK N   1      49.660  52.968  59.448  0.00  0.00     0.146 C 
HETATM   21  C   UNK N   1      52.216  52.922  59.923  0.00  0.00     0.012 C 
HETATM   22  C   UNK N   1      45.544  53.307  60.129  0.00  0.00     0.052 C 
ENDROOT
BRANCH  20  23
HETATM   23  O   UNK N   1      49.318  54.224  58.980  0.00  0.00    -0.315 OA
BRANCH  23  24
HETATM   24  C   UNK N   1      48.698  54.465  57.796  0.00  0.00     0.258 C 
HETATM   25  O   UNK N   1      49.035  53.872  56.783  0.00  0.00    -0.265 OA
BRANCH  24  26
HETATM   26  C   UNK N   1      47.575  55.465  57.760  0.00  0.00     0.106 C 
HETATM   27  C   UNK N   1      47.536  56.362  58.996  0.00  0.00     0.015 C 
ENDBRANCH  24  26
ENDBRANCH  23  24
ENDBRANCH  20  23
BRANCH   6  28
HETATM   28  O   UNK N   1      49.509  50.237  59.758  0.00  0.00    -0.307 OA
BRANCH  28  29
HETATM   29  C   UNK N   1      50.496  49.310  59.629  0.00  0.00     0.255 C 
HETATM   30  O   UNK N   1      50.400  48.199  60.127  0.00  0.00    -0.266 OA
HETATM   31  C   UNK N   1      51.754  49.700  58.922  0.00  0.00     0.126 C 
ENDBRANCH  28  29
ENDBRANCH   6  28
BRANCH   7  32
HETATM   32  O   UNK N   1      49.129  49.221  62.412  0.00  0.00    -0.313 OA
BRANCH  32  33
HETATM   33  C   UNK N   1      49.968  49.179  63.482  0.00  0.00     0.255 C 
HETATM   34  O   UNK N   1      51.036  48.585  63.424  0.00  0.00    -0.266 OA
HETATM   35  C   UNK N   1      49.576  49.874  64.745  0.00  0.00     0.126 C 
ENDBRANCH  32  33
ENDBRANCH   7  32
TORSDOF 7
ENDMDL
MODEL 7
REMARK VINA RESULT:      -4.0      1.990      4.716
REMARK  7 active torsions:
REMARK  status: ('A' for Active; 'I' for Inactive)
REMARK    1  A    between atoms: C_6  and  O_7 
REMARK    2  A    between atoms: O_7  and  C_8 
REMARK    3  A    between atoms: C_11  and  O_12 
REMARK    4  A    between atoms: O_12  and  C_13 
REMARK    5  A    between atoms: C_28  and  O_29 
REMARK    6  A    between atoms: O_29  and  C_30 
REMARK    7  A    between atoms: C_30  and  C_32 
ROOT
HETATM    1  O   UNK N   1      26.871  42.485  54.491  0.00  0.00    -0.292 OA
HETATM    2  C   UNK N   1      27.573  41.489  54.385  0.00  0.00     0.162 C 
HETATM    3  C   UNK N   1      28.787  41.340  55.214  0.00  0.00    -0.019 C 
HETATM    4  C   UNK N   1      28.673  41.628  56.536  0.00  0.00    -0.006 C 
HETATM    5  C   UNK N   1      29.722  41.318  57.594  0.00  0.00     0.076 C 
HETATM    6  C   UNK N   1      29.146  40.482  58.776  0.00  0.00     0.107 C 
HETATM    7  C   UNK N   1      28.195  39.277  58.387  0.00  0.00     0.175 C 
HETATM    8  C   UNK N   1      28.700  38.280  57.300  0.00  0.00     0.036 C 
HETATM    9  C   UNK N   1      27.621  37.229  57.024  0.00  0.00    -0.023 C 
HETATM   10  C   UNK N   1      26.955  36.995  55.859  0.00  0.00    -0.014 C 
HETATM   11  C   UNK N   1      27.120  37.733  54.520  0.00  0.00     0.031 C 
HETATM   12  C   UNK N   1      26.737  39.211  54.673  0.00  0.00     0.145 C 
HETATM   13  C   UNK N   1      27.048  40.285  53.638  0.00  0.00     0.163 C 
HETATM   14  O   UNK N   1      26.036  39.532  55.625  0.00  0.00    -0.296 OA
HETATM   15  C   UNK N   1      26.118  37.140  53.504  0.00  0.00     0.027 C 
HETATM   16  C   UNK N   1      28.538  37.460  53.966  0.00  0.00     0.027 C 
HETATM   17  C   UNK N   1      29.987  37.557  57.712  0.00  0.00     0.017 C 
HETATM   18  C   UNK N   1      28.355  41.570  59.558  0.00  0.00     0.049 C 
HETATM   19  C   UNK N   1      29.046  42.921  59.272  0.00  0.00     0.015 C 
HETATM   20  C   UNK N   1      30.221  42.571  58.331  0.00  0.00     0.146 C 
HETATM   21  C   UNK N   1      29.433  43.656  60.558  0.00  0.00     0.012 C 
HETATM   22  C   UNK N   1      30.036  40.809  54.538  0.00  0.00     0.052 C 
ENDROOT
BRANCH  20  23
HETATM   23  O   UNK N   1      30.573  43.576  57.447  0.00  0.00    -0.315 OA
BRANCH  23  24
HETATM   24  C   UNK N   1      31.619  44.425  57.618  0.00  0.00     0.258 C 
HETATM   25  O   UNK N   1      32.728  43.999  57.903  0.00  0.00    -0.265 OA
BRANCH  24  26
HETATM   26  C   UNK N   1      31.389  45.900  57.433  0.00  0.00     0.106 C 
HETATM   27  C   UNK N   1      30.096  46.387  58.084  0.00  0.00     0.015 C 
ENDBRANCH  24  26
ENDBRANCH  23  24
ENDBRANCH  20  23
BRANCH   6  28
HETATM   28  O   UNK N   1      30.269  40.083  59.508  0.00  0.00    -0.307 OA
BRANCH  28  29
HETATM   29  C   UNK N   1      30.464  40.050  60.854  0.00  0.00     0.255 C 
HETATM   30  O   UNK N   1      31.096  40.922  61.431  0.00  0.00    -0.266 OA
HETATM   31  C   UNK N   1      29.949  38.876  61.621  0.00  0.00     0.126 C 
ENDBRANCH  28  29
ENDBRANCH   6  28
BRANCH   7  32
HETATM   32  O   UNK N   1      27.829  38.577  59.529  0.00  0.00    -0.313 OA
BRANCH  32  33
HETATM   33  C   UNK N   1      26.588  38.575  60.086  0.00  0.00     0.255 C 
HETATM   34  O   UNK N   1      26.392  38.086  61.190  0.00  0.00    -0.266 OA
HETATM   35  C   UNK N   1      25.449  39.184  59.334  0.00  0.00     0.126 C 
ENDBRANCH  32  33
ENDBRANCH   7  32
TORSDOF 7
ENDMDL
MODEL 8
REMARK VINA RESULT:      -4.0      2.389      5.502
REMARK  7 active torsions:
REMARK  status: ('A' for Active; 'I' for Inactive)
REMARK    1  A    between atoms: C_6  and  O_7 
REMARK    2  A    between atoms: O_7  and  C_8 
REMARK    3  A    between atoms: C_11  and  O_12 
REMARK    4  A    between atoms: O_12  and  C_13 
REMARK    5  A    between atoms: C_28  and  O_29 
REMARK    6  A    between atoms: O_29  and  C_30 
REMARK    7  A    between atoms: C_30  and  C_32 
ROOT
HETATM    1  O   UNK N   1      29.590  39.935  55.883  0.00  0.00    -0.292 OA
HETATM    2  C   UNK N   1      28.661  40.306  56.587  0.00  0.00     0.162 C 
HETATM    3  C   UNK N   1      28.875  40.573  58.025  0.00  0.00    -0.019 C 
HETATM    4  C   UNK N   1      29.968  41.303  58.363  0.00  0.00    -0.006 C 
HETATM    5  C   UNK N   1      30.242  41.884  59.743  0.00  0.00     0.076 C 
HETATM    6  C   UNK N   1      30.498  43.420  59.702  0.00  0.00     0.107 C 
HETATM    7  C   UNK N   1      29.526  44.271  58.786  0.00  0.00     0.175 C 
HETATM    8  C   UNK N   1      27.993  44.047  58.958  0.00  0.00     0.036 C 
HETATM    9  C   UNK N   1      27.230  44.912  57.949  0.00  0.00    -0.023 C 
HETATM   10  C   UNK N   1      26.417  44.501  56.936  0.00  0.00    -0.014 C 
HETATM   11  C   UNK N   1      26.060  43.057  56.548  0.00  0.00     0.031 C 
HETATM   12  C   UNK N   1      27.318  42.293  56.115  0.00  0.00     0.145 C 
HETATM   13  C   UNK N   1      27.380  40.780  55.941  0.00  0.00     0.163 C 
HETATM   14  O   UNK N   1      28.300  42.941  55.772  0.00  0.00    -0.296 OA
HETATM   15  C   UNK N   1      25.140  43.094  55.308  0.00  0.00     0.027 C 
HETATM   16  C   UNK N   1      25.245  42.414  57.695  0.00  0.00     0.027 C 
HETATM   17  C   UNK N   1      27.499  44.396  60.366  0.00  0.00     0.017 C 
HETATM   18  C   UNK N   1      31.951  43.469  59.147  0.00  0.00     0.049 C 
HETATM   19  C   UNK N   1      32.638  42.151  59.568  0.00  0.00     0.015 C 
HETATM   20  C   UNK N   1      31.557  41.379  60.358  0.00  0.00     0.146 C 
HETATM   21  C   UNK N   1      33.949  42.397  60.319  0.00  0.00     0.012 C 
HETATM   22  C   UNK N   1      27.820  40.076  58.994  0.00  0.00     0.052 C 
ENDROOT
BRANCH  20  23
HETATM   23  O   UNK N   1      31.660  40.001  60.281  0.00  0.00    -0.315 OA
BRANCH  23  24
HETATM   24  C   UNK N   1      30.973  39.130  61.064  0.00  0.00     0.258 C 
HETATM   25  O   UNK N   1      30.322  39.528  62.018  0.00  0.00    -0.265 OA
BRANCH  24  26
HETATM   26  C   UNK N   1      31.014  37.666  60.723  0.00  0.00     0.106 C 
HETATM   27  C   UNK N   1      29.709  37.159  60.112  0.00  0.00     0.015 C 
ENDBRANCH  24  26
ENDBRANCH  23  24
ENDBRANCH  20  23
BRANCH   6  28
HETATM   28  O   UNK N   1      30.481  43.818  61.042  0.00  0.00    -0.307 OA
BRANCH  28  29
HETATM   29  C   UNK N   1      31.244  44.742  61.686  0.00  0.00     0.255 C 
HETATM   30  O   UNK N   1      32.265  44.428  62.279  0.00  0.00    -0.266 OA
HETATM   31  C   UNK N   1      30.770  46.159  61.722  0.00  0.00     0.126 C 
ENDBRANCH  28  29
ENDBRANCH   6  28
BRANCH   7  32
HETATM   32  O   UNK N   1      29.819  45.621  58.914  0.00  0.00    -0.313 OA
BRANCH  32  33
HETATM   33  C   UNK N   1      30.347  46.408  57.937  0.00  0.00     0.255 C 
HETATM   34  O   UNK N   1      31.289  46.024  57.257  0.00  0.00    -0.266 OA
HETATM   35  C   UNK N   1      29.759  47.760  57.691  0.00  0.00     0.126 C 
ENDBRANCH  32  33
ENDBRANCH   7  32
TORSDOF 7
ENDMDL
MODEL 9
REMARK VINA RESULT:      -4.0      3.231      7.161
REMARK  7 active torsions:
REMARK  status: ('A' for Active; 'I' for Inactive)
REMARK    1  A    between atoms: C_6  and  O_7 
REMARK    2  A    between atoms: O_7  and  C_8 
REMARK    3  A    between atoms: C_11  and  O_12 
REMARK    4  A    between atoms: O_12  and  C_13 
REMARK    5  A    between atoms: C_28  and  O_29 
REMARK    6  A    between atoms: O_29  and  C_30 
REMARK    7  A    between atoms: C_30  and  C_32 
ROOT
HETATM    1  O   UNK N   1      34.409  43.653  58.876  0.00  0.00    -0.292 OA
HETATM    2  C   UNK N   1      33.423  42.935  58.959  0.00  0.00     0.162 C 
HETATM    3  C   UNK N   1      32.733  42.762  60.255  0.00  0.00    -0.019 C 
HETATM    4  C   UNK N   1      32.493  43.883  60.982  0.00  0.00    -0.006 C 
HETATM    5  C   UNK N   1      31.599  43.955  62.212  0.00  0.00     0.076 C 
HETATM    6  C   UNK N   1      30.491  45.041  62.080  0.00  0.00     0.107 C 
HETATM    7  C   UNK N   1      29.739  45.112  60.688  0.00  0.00     0.175 C 
HETATM    8  C   UNK N   1      29.175  43.782  60.103  0.00  0.00     0.036 C 
HETATM    9  C   UNK N   1      28.541  44.049  58.734  0.00  0.00    -0.023 C 
HETATM   10  C   UNK N   1      28.915  43.548  57.523  0.00  0.00    -0.014 C 
HETATM   11  C   UNK N   1      30.075  42.584  57.226  0.00  0.00     0.031 C 
HETATM   12  C   UNK N   1      31.417  43.231  57.594  0.00  0.00     0.145 C 
HETATM   13  C   UNK N   1      32.733  42.468  57.699  0.00  0.00     0.163 C 
HETATM   14  O   UNK N   1      31.463  44.451  57.697  0.00  0.00    -0.296 OA
HETATM   15  C   UNK N   1      30.131  42.337  55.701  0.00  0.00     0.027 C 
HETATM   16  C   UNK N   1      29.781  41.220  57.892  0.00  0.00     0.027 C 
HETATM   17  C   UNK N   1      28.120  43.138  61.008  0.00  0.00     0.017 C 
HETATM   18  C   UNK N   1      31.311  46.341  62.323  0.00  0.00     0.049 C 
HETATM   19  C   UNK N   1      32.509  45.955  63.219  0.00  0.00     0.015 C 
HETATM   20  C   UNK N   1      32.343  44.439  63.467  0.00  0.00     0.146 C 
HETATM   21  C   UNK N   1      32.591  46.821  64.479  0.00  0.00     0.012 C 
HETATM   22  C   UNK N   1      32.286  41.362  60.629  0.00  0.00     0.052 C 
ENDROOT
BRANCH  20  23
HETATM   23  O   UNK N   1      33.529  43.751  63.655  0.00  0.00    -0.315 OA
BRANCH  23  24
HETATM   24  C   UNK N   1      34.758  44.328  63.693  0.00  0.00     0.258 C 
HETATM   25  O   UNK N   1      35.254  44.671  64.755  0.00  0.00    -0.265 OA
BRANCH  24  26
HETATM   26  C   UNK N   1      35.506  44.519  62.402  0.00  0.00     0.106 C 
HETATM   27  C   UNK N   1      36.601  45.581  62.499  0.00  0.00     0.015 C 
ENDBRANCH  24  26
ENDBRANCH  23  24
ENDBRANCH  20  23
BRANCH   6  28
HETATM   28  O   UNK N   1      29.632  44.804  63.158  0.00  0.00    -0.307 OA
BRANCH  28  29
HETATM   29  C   UNK N   1      29.055  45.683  64.021  0.00  0.00     0.255 C 
HETATM   30  O   UNK N   1      28.347  46.597  63.626  0.00  0.00    -0.266 OA
HETATM   31  C   UNK N   1      29.363  45.559  65.478  0.00  0.00     0.126 C 
ENDBRANCH  28  29
ENDBRANCH   6  28
BRANCH   7  32
HETATM   32  O   UNK N   1      28.729  46.062  60.745  0.00  0.00    -0.313 OA
BRANCH  32  33
HETATM   33  C   UNK N   1      28.752  47.274  60.125  0.00  0.00     0.255 C 
HETATM   34  O   UNK N   1      27.953  48.150  60.421  0.00  0.00    -0.266 OA
HETATM   35  C   UNK N   1      29.776  47.532  59.067  0.00  0.00     0.126 C 
ENDBRANCH  32  33
ENDBRANCH   7  32
TORSDOF 7
ENDMDL
