MODEL 1
REMARK VINA RESULT:      -5.3      0.000      0.000
REMARK  6 active torsions:
REMARK  status: ('A' for Active; 'I' for Inactive)
REMARK    1  A    between atoms: C_3  and  O_4 
REMARK    2  A    between atoms: O_4  and  C_5 
REMARK    3  A    between atoms: C_9  and  O_10 
REMARK    4  A    between atoms: O_10  and  C_11 
REMARK    5  A    between atoms: C_11  and  C_13 
REMARK    6  A    between atoms: C_24  and  O_25 
ROOT
HETATM    1  O   UNK N   1      28.314  39.287  60.293  0.00  0.00    -0.294 OA
HETATM    2  C   UNK N   1      29.105  38.838  59.473  0.00  0.00     0.170 C 
HETATM    3  C   UNK N   1      28.556  38.050  58.272  0.00  0.00     0.141 C 
HETATM    4  C   UNK N   1      28.344  38.955  57.016  0.00  0.00     0.081 C 
HETATM    5  C   UNK N   1      28.752  38.050  55.846  0.00  0.00     0.147 C 
HETATM    6  C   UNK N   1      29.980  37.323  56.402  0.00  0.00     0.015 C 
HETATM    7  C   UNK N   1      29.460  36.881  57.770  0.00  0.00     0.054 C 
HETATM    8  C   UNK N   1      30.460  36.155  55.535  0.00  0.00     0.012 C 
HETATM    9  C   UNK N   1      29.175  40.249  57.016  0.00  0.00    -0.011 C 
HETATM   10  C   UNK N   1      28.663  41.499  57.211  0.00  0.00    -0.058 C 
HETATM   11  C   UNK N   1      29.507  42.777  57.126  0.00  0.00     0.153 C 
HETATM   12  C   UNK N   1      31.030  42.719  56.773  0.00  0.00     0.115 C 
HETATM   13  C   UNK N   1      31.879  43.324  57.875  0.00  0.00     0.141 C 
HETATM   14  C   UNK N   1      32.199  42.588  59.177  0.00  0.00     0.031 C 
HETATM   15  C   UNK N   1      31.790  41.118  59.077  0.00  0.00    -0.014 C 
HETATM   16  C   UNK N   1      30.907  40.500  59.884  0.00  0.00    -0.018 C 
HETATM   17  C   UNK N   1      30.587  39.031  59.718  0.00  0.00     0.077 C 
HETATM   18  C   UNK N   1      30.995  38.275  60.985  0.00  0.00     0.022 C 
HETATM   19  C   UNK N   1      31.531  43.344  60.350  0.00  0.00     0.027 C 
HETATM   20  C   UNK N   1      33.725  42.612  59.394  0.00  0.00     0.027 C 
HETATM   21  O   UNK N   1      32.310  44.458  57.716  0.00  0.00    -0.297 OA
HETATM   22  C   UNK N   1      27.202  41.735  57.568  0.00  0.00     0.046 C 
ENDROOT
BRANCH   5  23
HETATM   23  O   UNK N   1      29.040  38.788  54.710  0.00  0.00    -0.311 OA
BRANCH  23  24
HETATM   24  C   UNK N   1      28.154  39.115  53.732  0.00  0.00     0.293 C 
HETATM   25  O   UNK N   1      27.710  38.258  52.982  0.00  0.00    -0.259 OA
BRANCH  24  26
HETATM   26  C   UNK N   1      27.729  40.528  53.591  0.00  0.00     0.039 A 
HETATM   27  C   UNK N   1      28.592  41.468  52.997  0.00  0.00     0.017 A 
HETATM   28  C   UNK N   1      28.188  42.798  52.844  0.00  0.00     0.001 A 
HETATM   29  C   UNK N   1      26.924  43.200  53.279  0.00  0.00     0.000 A 
HETATM   30  C   UNK N   1      26.062  42.277  53.875  0.00  0.00     0.001 A 
HETATM   31  C   UNK N   1      26.460  40.946  54.036  0.00  0.00     0.017 A 
ENDBRANCH  24  26
ENDBRANCH  23  24
ENDBRANCH   5  23
BRANCH   3  32
HETATM   32  O   UNK N   1      27.310  37.528  58.616  0.00  0.00    -0.302 OA
BRANCH  32  33
HETATM   33  C   UNK N   1      27.022  36.209  58.794  0.00  0.00     0.256 C 
HETATM   34  O   UNK N   1      27.264  35.649  59.855  0.00  0.00    -0.266 OA
HETATM   35  C   UNK N   1      26.386  35.447  57.678  0.00  0.00     0.126 C 
ENDBRANCH  32  33
ENDBRANCH   3  32
BRANCH  11  36
HETATM   36  O   UNK N   1      28.878  43.635  56.205  0.00  0.00    -0.391 OA
HETATM   37  H   UNK N   1      29.384  44.490  56.211  0.00  0.00     0.210 HD
ENDBRANCH  11  36
TORSDOF 6
ENDMDL
MODEL 2
REMARK VINA RESULT:      -5.1      4.716      7.808
REMARK  6 active torsions:
REMARK  status: ('A' for Active; 'I' for Inactive)
REMARK    1  A    between atoms: C_3  and  O_4 
REMARK    2  A    between atoms: O_4  and  C_5 
REMARK    3  A    between atoms: C_9  and  O_10 
REMARK    4  A    between atoms: O_10  and  C_11 
REMARK    5  A    between atoms: C_11  and  C_13 
REMARK    6  A    between atoms: C_24  and  O_25 
ROOT
HETATM    1  O   UNK N   1      31.637  41.963  61.817  0.00  0.00    -0.294 OA
HETATM    2  C   UNK N   1      31.895  42.833  60.995  0.00  0.00     0.170 C 
HETATM    3  C   UNK N   1      30.733  43.537  60.274  0.00  0.00     0.141 C 
HETATM    4  C   UNK N   1      30.309  44.860  60.986  0.00  0.00     0.081 C 
HETATM    5  C   UNK N   1      29.970  45.804  59.824  0.00  0.00     0.147 C 
HETATM    6  C   UNK N   1      31.069  45.482  58.806  0.00  0.00     0.015 C 
HETATM    7  C   UNK N   1      31.018  43.955  58.797  0.00  0.00     0.054 C 
HETATM    8  C   UNK N   1      30.840  46.101  57.423  0.00  0.00     0.012 C 
HETATM    9  C   UNK N   1      31.394  45.475  61.885  0.00  0.00    -0.011 C 
HETATM   10  C   UNK N   1      31.359  45.481  63.250  0.00  0.00    -0.058 C 
HETATM   11  C   UNK N   1      32.418  46.174  64.116  0.00  0.00     0.153 C 
HETATM   12  C   UNK N   1      33.609  46.955  63.469  0.00  0.00     0.115 C 
HETATM   13  C   UNK N   1      34.947  46.385  63.900  0.00  0.00     0.141 C 
HETATM   14  C   UNK N   1      35.530  45.099  63.312  0.00  0.00     0.031 C 
HETATM   15  C   UNK N   1      34.731  44.658  62.085  0.00  0.00    -0.014 C 
HETATM   16  C   UNK N   1      34.095  43.478  61.954  0.00  0.00    -0.018 C 
HETATM   17  C   UNK N   1      33.348  43.127  60.686  0.00  0.00     0.077 C 
HETATM   18  C   UNK N   1      33.990  41.895  60.043  0.00  0.00     0.022 C 
HETATM   19  C   UNK N   1      35.600  44.030  64.429  0.00  0.00     0.027 C 
HETATM   20  C   UNK N   1      36.966  45.385  62.828  0.00  0.00     0.027 C 
HETATM   21  O   UNK N   1      35.575  46.975  64.768  0.00  0.00    -0.297 OA
HETATM   22  C   UNK N   1      30.273  44.765  64.041  0.00  0.00     0.046 C 
ENDROOT
BRANCH   5  23
HETATM   23  O   UNK N   1      29.988  47.130  60.224  0.00  0.00    -0.311 OA
BRANCH  23  24
HETATM   24  C   UNK N   1      28.982  48.025  60.042  0.00  0.00     0.293 C 
HETATM   25  O   UNK N   1      28.149  48.213  60.917  0.00  0.00    -0.259 OA
BRANCH  24  26
HETATM   26  C   UNK N   1      28.910  48.776  58.766  0.00  0.00     0.039 A 
HETATM   27  C   UNK N   1      29.985  49.590  58.365  0.00  0.00     0.017 A 
HETATM   28  C   UNK N   1      29.931  50.285  57.153  0.00  0.00     0.001 A 
HETATM   29  C   UNK N   1      28.807  50.173  56.332  0.00  0.00     0.000 A 
HETATM   30  C   UNK N   1      27.731  49.373  56.723  0.00  0.00     0.001 A 
HETATM   31  C   UNK N   1      27.776  48.678  57.936  0.00  0.00     0.017 A 
ENDBRANCH  24  26
ENDBRANCH  23  24
ENDBRANCH   5  23
BRANCH   3  32
HETATM   32  O   UNK N   1      29.625  42.691  60.287  0.00  0.00    -0.302 OA
BRANCH  32  33
HETATM   33  C   UNK N   1      29.151  41.983  59.224  0.00  0.00     0.256 C 
HETATM   34  O   UNK N   1      28.214  42.400  58.557  0.00  0.00    -0.266 OA
HETATM   35  C   UNK N   1      29.802  40.688  58.865  0.00  0.00     0.126 C 
ENDBRANCH  32  33
ENDBRANCH   3  32
BRANCH  11  36
HETATM   36  O   UNK N   1      31.743  47.050  64.986  0.00  0.00    -0.391 OA
HETATM   37  H   UNK N   1      31.209  46.489  65.608  0.00  0.00     0.210 HD
ENDBRANCH  11  36
TORSDOF 6
ENDMDL
MODEL 3
REMARK VINA RESULT:      -5.0      2.261      7.959
REMARK  6 active torsions:
REMARK  status: ('A' for Active; 'I' for Inactive)
REMARK    1  A    between atoms: C_3  and  O_4 
REMARK    2  A    between atoms: O_4  and  C_5 
REMARK    3  A    between atoms: C_9  and  O_10 
REMARK    4  A    between atoms: O_10  and  C_11 
REMARK    5  A    between atoms: C_11  and  C_13 
REMARK    6  A    between atoms: C_24  and  O_25 
ROOT
HETATM    1  O   UNK N   1      28.519  42.901  55.810  0.00  0.00    -0.294 OA
HETATM    2  C   UNK N   1      29.614  42.529  56.214  0.00  0.00     0.170 C 
HETATM    3  C   UNK N   1      30.272  43.293  57.375  0.00  0.00     0.141 C 
HETATM    4  C   UNK N   1      29.958  42.649  58.763  0.00  0.00     0.081 C 
HETATM    5  C   UNK N   1      31.269  42.814  59.543  0.00  0.00     0.147 C 
HETATM    6  C   UNK N   1      32.328  42.514  58.478  0.00  0.00     0.015 C 
HETATM    7  C   UNK N   1      31.830  43.379  57.321  0.00  0.00     0.054 C 
HETATM    8  C   UNK N   1      33.759  42.850  58.908  0.00  0.00     0.012 C 
HETATM    9  C   UNK N   1      29.548  41.168  58.698  0.00  0.00    -0.011 C 
HETATM   10  C   UNK N   1      28.283  40.703  58.913  0.00  0.00    -0.058 C 
HETATM   11  C   UNK N   1      27.923  39.212  58.920  0.00  0.00     0.153 C 
HETATM   12  C   UNK N   1      29.018  38.115  58.707  0.00  0.00     0.115 C 
HETATM   13  C   UNK N   1      28.707  37.248  57.501  0.00  0.00     0.141 C 
HETATM   14  C   UNK N   1      28.951  37.706  56.063  0.00  0.00     0.031 C 
HETATM   15  C   UNK N   1      29.778  38.993  56.042  0.00  0.00    -0.014 C 
HETATM   16  C   UNK N   1      29.386  40.160  55.497  0.00  0.00    -0.018 C 
HETATM   17  C   UNK N   1      30.290  41.373  55.507  0.00  0.00     0.077 C 
HETATM   18  C   UNK N   1      30.614  41.778  54.067  0.00  0.00     0.022 C 
HETATM   19  C   UNK N   1      27.586  37.830  55.344  0.00  0.00     0.027 C 
HETATM   20  C   UNK N   1      29.783  36.631  55.337  0.00  0.00     0.027 C 
HETATM   21  O   UNK N   1      28.226  36.140  57.694  0.00  0.00    -0.297 OA
HETATM   22  C   UNK N   1      27.098  41.635  59.132  0.00  0.00     0.046 C 
ENDROOT
BRANCH   5  23
HETATM   23  O   UNK N   1      31.333  41.943  60.618  0.00  0.00    -0.311 OA
BRANCH  23  24
HETATM   24  C   UNK N   1      31.239  42.293  61.928  0.00  0.00     0.293 C 
HETATM   25  O   UNK N   1      30.642  41.582  62.722  0.00  0.00    -0.259 OA
BRANCH  24  26
HETATM   26  C   UNK N   1      31.876  43.552  62.382  0.00  0.00     0.039 A 
HETATM   27  C   UNK N   1      31.084  44.676  62.682  0.00  0.00     0.017 A 
HETATM   28  C   UNK N   1      31.677  45.859  63.130  0.00  0.00     0.001 A 
HETATM   29  C   UNK N   1      33.064  45.933  63.283  0.00  0.00     0.000 A 
HETATM   30  C   UNK N   1      33.860  44.825  62.982  0.00  0.00     0.001 A 
HETATM   31  C   UNK N   1      33.274  43.639  62.530  0.00  0.00     0.017 A 
ENDBRANCH  24  26
ENDBRANCH  23  24
ENDBRANCH   5  23
BRANCH   3  32
HETATM   32  O   UNK N   1      29.759  44.589  57.400  0.00  0.00    -0.302 OA
BRANCH  32  33
HETATM   33  C   UNK N   1      30.405  45.692  57.871  0.00  0.00     0.256 C 
HETATM   34  O   UNK N   1      31.182  46.318  57.164  0.00  0.00    -0.266 OA
HETATM   35  C   UNK N   1      30.142  46.145  59.270  0.00  0.00     0.126 C 
ENDBRANCH  32  33
ENDBRANCH   3  32
BRANCH  11  36
HETATM   36  O   UNK N   1      27.268  38.944  60.136  0.00  0.00    -0.391 OA
HETATM   37  H   UNK N   1      26.339  38.671  59.912  0.00  0.00     0.210 HD
ENDBRANCH  11  36
TORSDOF 6
ENDMDL
MODEL 4
REMARK VINA RESULT:      -4.9      2.434      7.556
REMARK  6 active torsions:
REMARK  status: ('A' for Active; 'I' for Inactive)
REMARK    1  A    between atoms: C_3  and  O_4 
REMARK    2  A    between atoms: O_4  and  C_5 
REMARK    3  A    between atoms: C_9  and  O_10 
REMARK    4  A    between atoms: O_10  and  C_11 
REMARK    5  A    between atoms: C_11  and  C_13 
REMARK    6  A    between atoms: C_24  and  O_25 
ROOT
HETATM    1  O   UNK N   1      28.494  42.881  55.826  0.00  0.00    -0.294 OA
HETATM    2  C   UNK N   1      29.590  42.505  56.224  0.00  0.00     0.170 C 
HETATM    3  C   UNK N   1      30.235  43.236  57.413  0.00  0.00     0.141 C 
HETATM    4  C   UNK N   1      29.919  42.544  58.777  0.00  0.00     0.081 C 
HETATM    5  C   UNK N   1      31.224  42.695  59.569  0.00  0.00     0.147 C 
HETATM    6  C   UNK N   1      32.292  42.439  58.501  0.00  0.00     0.015 C 
HETATM    7  C   UNK N   1      31.792  43.338  57.371  0.00  0.00     0.054 C 
HETATM    8  C   UNK N   1      33.718  42.773  58.951  0.00  0.00     0.012 C 
HETATM    9  C   UNK N   1      29.523  41.062  58.661  0.00  0.00    -0.011 C 
HETATM   10  C   UNK N   1      28.261  40.579  58.853  0.00  0.00    -0.058 C 
HETATM   11  C   UNK N   1      27.915  39.086  58.809  0.00  0.00     0.153 C 
HETATM   12  C   UNK N   1      29.021  38.006  58.566  0.00  0.00     0.115 C 
HETATM   13  C   UNK N   1      28.724  37.176  57.330  0.00  0.00     0.141 C 
HETATM   14  C   UNK N   1      28.971  37.685  55.909  0.00  0.00     0.031 C 
HETATM   15  C   UNK N   1      29.787  38.978  55.935  0.00  0.00    -0.014 C 
HETATM   16  C   UNK N   1      29.387  40.160  55.428  0.00  0.00    -0.018 C 
HETATM   17  C   UNK N   1      30.281  41.379  55.483  0.00  0.00     0.077 C 
HETATM   18  C   UNK N   1      30.609  41.834  54.059  0.00  0.00     0.022 C 
HETATM   19  C   UNK N   1      27.609  37.820  55.187  0.00  0.00     0.027 C 
HETATM   20  C   UNK N   1      29.817  36.641  55.153  0.00  0.00     0.027 C 
HETATM   21  O   UNK N   1      28.251  36.059  57.484  0.00  0.00    -0.297 OA
HETATM   22  C   UNK N   1      27.067  41.493  59.096  0.00  0.00     0.046 C 
ENDROOT
BRANCH   5  23
HETATM   23  O   UNK N   1      31.291  41.789  60.615  0.00  0.00    -0.311 OA
BRANCH  23  24
HETATM   24  C   UNK N   1      30.918  42.033  61.899  0.00  0.00     0.293 C 
HETATM   25  O   UNK N   1      31.737  42.407  62.726  0.00  0.00    -0.259 OA
BRANCH  24  26
HETATM   26  C   UNK N   1      29.499  41.845  62.283  0.00  0.00     0.039 A 
HETATM   27  C   UNK N   1      28.621  42.945  62.304  0.00  0.00     0.017 A 
HETATM   28  C   UNK N   1      27.278  42.770  62.647  0.00  0.00     0.001 A 
HETATM   29  C   UNK N   1      26.797  41.498  62.969  0.00  0.00     0.000 A 
HETATM   30  C   UNK N   1      27.661  40.401  62.958  0.00  0.00     0.001 A 
HETATM   31  C   UNK N   1      29.007  40.569  62.620  0.00  0.00     0.017 A 
ENDBRANCH  24  26
ENDBRANCH  23  24
ENDBRANCH   5  23
BRANCH   3  32
HETATM   32  O   UNK N   1      29.710  44.526  57.477  0.00  0.00    -0.302 OA
BRANCH  32  33
HETATM   33  C   UNK N   1      30.362  45.628  57.943  0.00  0.00     0.256 C 
HETATM   34  O   UNK N   1      31.135  46.252  57.228  0.00  0.00    -0.266 OA
HETATM   35  C   UNK N   1      30.112  46.084  59.343  0.00  0.00     0.126 C 
ENDBRANCH  32  33
ENDBRANCH   3  32
BRANCH  11  36
HETATM   36  O   UNK N   1      27.256  38.772  60.011  0.00  0.00    -0.391 OA
HETATM   37  H   UNK N   1      26.587  39.489  60.173  0.00  0.00     0.210 HD
ENDBRANCH  11  36
TORSDOF 6
ENDMDL
MODEL 5
REMARK VINA RESULT:      -4.9      2.775      3.889
REMARK  6 active torsions:
REMARK  status: ('A' for Active; 'I' for Inactive)
REMARK    1  A    between atoms: C_3  and  O_4 
REMARK    2  A    between atoms: O_4  and  C_5 
REMARK    3  A    between atoms: C_9  and  O_10 
REMARK    4  A    between atoms: O_10  and  C_11 
REMARK    5  A    between atoms: C_11  and  C_13 
REMARK    6  A    between atoms: C_24  and  O_25 
ROOT
HETATM    1  O   UNK N   1      27.482  42.524  59.852  0.00  0.00    -0.294 OA
HETATM    2  C   UNK N   1      27.877  41.754  58.986  0.00  0.00     0.170 C 
HETATM    3  C   UNK N   1      27.216  41.799  57.599  0.00  0.00     0.141 C 
HETATM    4  C   UNK N   1      27.989  42.722  56.604  0.00  0.00     0.081 C 
HETATM    5  C   UNK N   1      27.883  41.981  55.265  0.00  0.00     0.147 C 
HETATM    6  C   UNK N   1      28.072  40.519  55.680  0.00  0.00     0.015 C 
HETATM    7  C   UNK N   1      27.109  40.426  56.863  0.00  0.00     0.054 C 
HETATM    8  C   UNK N   1      27.762  39.509  54.571  0.00  0.00     0.012 C 
HETATM    9  C   UNK N   1      29.462  42.964  56.974  0.00  0.00    -0.011 C 
HETATM   10  C   UNK N   1      29.959  44.142  57.453  0.00  0.00    -0.058 C 
HETATM   11  C   UNK N   1      31.447  44.375  57.737  0.00  0.00     0.153 C 
HETATM   12  C   UNK N   1      32.508  43.260  57.458  0.00  0.00     0.115 C 
HETATM   13  C   UNK N   1      33.264  42.885  58.720  0.00  0.00     0.141 C 
HETATM   14  C   UNK N   1      32.672  41.988  59.807  0.00  0.00     0.031 C 
HETATM   15  C   UNK N   1      31.380  41.330  59.318  0.00  0.00    -0.014 C 
HETATM   16  C   UNK N   1      30.172  41.466  59.896  0.00  0.00    -0.018 C 
HETATM   17  C   UNK N   1      28.956  40.753  59.347  0.00  0.00     0.077 C 
HETATM   18  C   UNK N   1      28.417  39.782  60.400  0.00  0.00     0.022 C 
HETATM   19  C   UNK N   1      32.498  42.822  61.098  0.00  0.00     0.027 C 
HETATM   20  C   UNK N   1      33.668  40.847  60.100  0.00  0.00     0.027 C 
HETATM   21  O   UNK N   1      34.390  43.337  58.876  0.00  0.00    -0.297 OA
HETATM   22  C   UNK N   1      29.064  45.329  57.783  0.00  0.00     0.046 C 
ENDROOT
BRANCH   5  23
HETATM   23  O   UNK N   1      28.849  42.408  54.369  0.00  0.00    -0.311 OA
BRANCH  23  24
HETATM   24  C   UNK N   1      28.697  42.488  53.020  0.00  0.00     0.293 C 
HETATM   25  O   UNK N   1      29.660  42.371  52.277  0.00  0.00    -0.259 OA
BRANCH  24  26
HETATM   26  C   UNK N   1      27.343  42.716  52.462  0.00  0.00     0.039 A 
HETATM   27  C   UNK N   1      26.636  41.652  51.870  0.00  0.00     0.017 A 
HETATM   28  C   UNK N   1      25.351  41.857  51.359  0.00  0.00     0.001 A 
HETATM   29  C   UNK N   1      24.761  43.120  51.434  0.00  0.00     0.000 A 
HETATM   30  C   UNK N   1      25.456  44.184  52.014  0.00  0.00     0.001 A 
HETATM   31  C   UNK N   1      26.743  43.989  52.523  0.00  0.00     0.017 A 
ENDBRANCH  24  26
ENDBRANCH  23  24
ENDBRANCH   5  23
BRANCH   3  32
HETATM   32  O   UNK N   1      25.934  42.328  57.736  0.00  0.00    -0.302 OA
BRANCH  32  33
HETATM   33  C   UNK N   1      25.464  43.446  57.116  0.00  0.00     0.256 C 
HETATM   34  O   UNK N   1      25.660  44.558  57.588  0.00  0.00    -0.266 OA
HETATM   35  C   UNK N   1      24.711  43.306  55.834  0.00  0.00     0.126 C 
ENDBRANCH  32  33
ENDBRANCH   3  32
BRANCH  11  36
HETATM   36  O   UNK N   1      31.834  45.530  57.032  0.00  0.00    -0.391 OA
HETATM   37  H   UNK N   1      31.181  45.653  56.294  0.00  0.00     0.210 HD
ENDBRANCH  11  36
TORSDOF 6
ENDMDL
MODEL 6
REMARK VINA RESULT:      -4.9      3.330      5.429
REMARK  6 active torsions:
REMARK  status: ('A' for Active; 'I' for Inactive)
REMARK    1  A    between atoms: C_3  and  O_4 
REMARK    2  A    between atoms: O_4  and  C_5 
REMARK    3  A    between atoms: C_9  and  O_10 
REMARK    4  A    between atoms: O_10  and  C_11 
REMARK    5  A    between atoms: C_11  and  C_13 
REMARK    6  A    between atoms: C_24  and  O_25 
ROOT
HETATM    1  O   UNK N   1      28.267  43.185  61.992  0.00  0.00    -0.294 OA
HETATM    2  C   UNK N   1      29.358  43.483  61.523  0.00  0.00     0.170 C 
HETATM    3  C   UNK N   1      30.036  42.504  60.550  0.00  0.00     0.141 C 
HETATM    4  C   UNK N   1      29.722  42.838  59.057  0.00  0.00     0.081 C 
HETATM    5  C   UNK N   1      31.040  42.536  58.333  0.00  0.00     0.147 C 
HETATM    6  C   UNK N   1      32.087  43.071  59.315  0.00  0.00     0.015 C 
HETATM    7  C   UNK N   1      31.595  42.458  60.626  0.00  0.00     0.054 C 
HETATM    8  C   UNK N   1      33.527  42.676  58.970  0.00  0.00     0.012 C 
HETATM    9  C   UNK N   1      29.288  44.292  58.808  0.00  0.00    -0.011 C 
HETATM   10  C   UNK N   1      28.017  44.680  58.497  0.00  0.00    -0.058 C 
HETATM   11  C   UNK N   1      27.633  46.130  58.176  0.00  0.00     0.153 C 
HETATM   12  C   UNK N   1      28.708  47.266  58.159  0.00  0.00     0.115 C 
HETATM   13  C   UNK N   1      28.375  48.361  59.155  0.00  0.00     0.141 C 
HETATM   14  C   UNK N   1      28.616  48.218  60.658  0.00  0.00     0.031 C 
HETATM   15  C   UNK N   1      29.464  46.979  60.951  0.00  0.00    -0.014 C 
HETATM   16  C   UNK N   1      29.087  45.945  61.727  0.00  0.00    -0.018 C 
HETATM   17  C   UNK N   1      30.011  44.773  61.974  0.00  0.00     0.077 C 
HETATM   18  C   UNK N   1      30.331  44.685  63.468  0.00  0.00     0.022 C 
HETATM   19  C   UNK N   1      27.249  48.225  61.382  0.00  0.00     0.027 C 
HETATM   20  C   UNK N   1      29.426  49.436  61.145  0.00  0.00     0.027 C 
HETATM   21  O   UNK N   1      27.877  49.395  58.732  0.00  0.00    -0.297 OA
HETATM   22  C   UNK N   1      26.849  43.703  58.473  0.00  0.00     0.046 C 
ENDROOT
BRANCH   5  23
HETATM   23  O   UNK N   1      31.099  43.163  57.100  0.00  0.00    -0.311 OA
BRANCH  23  24
HETATM   24  C   UNK N   1      31.134  42.537  55.894  0.00  0.00     0.293 C 
HETATM   25  O   UNK N   1      32.164  42.510  55.236  0.00  0.00    -0.259 OA
BRANCH  24  26
HETATM   26  C   UNK N   1      29.904  41.882  55.388  0.00  0.00     0.039 A 
HETATM   27  C   UNK N   1      29.966  40.580  54.856  0.00  0.00     0.017 A 
HETATM   28  C   UNK N   1      28.807  39.950  54.396  0.00  0.00     0.001 A 
HETATM   29  C   UNK N   1      27.578  40.610  54.463  0.00  0.00     0.000 A 
HETATM   30  C   UNK N   1      27.506  41.904  54.983  0.00  0.00     0.001 A 
HETATM   31  C   UNK N   1      28.662  42.543  55.441  0.00  0.00     0.017 A 
ENDBRANCH  24  26
ENDBRANCH  23  24
ENDBRANCH   5  23
BRANCH   3  32
HETATM   32  O   UNK N   1      29.545  41.223  60.796  0.00  0.00    -0.302 OA
BRANCH  32  33
HETATM   33  C   UNK N   1      30.172  40.255  61.520  0.00  0.00     0.256 C 
HETATM   34  O   UNK N   1      30.104  40.238  62.742  0.00  0.00    -0.266 OA
HETATM   35  C   UNK N   1      30.939  39.193  60.803  0.00  0.00     0.126 C 
ENDBRANCH  32  33
ENDBRANCH   3  32
BRANCH  11  36
HETATM   36  O   UNK N   1      26.982  46.126  56.929  0.00  0.00    -0.391 OA
HETATM   37  H   UNK N   1      26.667  45.198  56.768  0.00  0.00     0.210 HD
ENDBRANCH  11  36
TORSDOF 6
ENDMDL
MODEL 7
REMARK VINA RESULT:      -4.7      4.280      8.051
REMARK  6 active torsions:
REMARK  status: ('A' for Active; 'I' for Inactive)
REMARK    1  A    between atoms: C_3  and  O_4 
REMARK    2  A    between atoms: O_4  and  C_5 
REMARK    3  A    between atoms: C_9  and  O_10 
REMARK    4  A    between atoms: O_10  and  C_11 
REMARK    5  A    between atoms: C_11  and  C_13 
REMARK    6  A    between atoms: C_24  and  O_25 
ROOT
HETATM    1  O   UNK N   1      27.949  41.746  59.339  0.00  0.00    -0.294 OA
HETATM    2  C   UNK N   1      28.368  42.351  60.318  0.00  0.00     0.170 C 
HETATM    3  C   UNK N   1      29.641  41.843  61.013  0.00  0.00     0.141 C 
HETATM    4  C   UNK N   1      30.928  42.557  60.489  0.00  0.00     0.081 C 
HETATM    5  C   UNK N   1      31.792  42.716  61.747  0.00  0.00     0.147 C 
HETATM    6  C   UNK N   1      30.759  43.095  62.812  0.00  0.00     0.015 C 
HETATM    7  C   UNK N   1      29.682  42.040  62.561  0.00  0.00     0.054 C 
HETATM    8  C   UNK N   1      31.302  43.074  64.245  0.00  0.00     0.012 C 
HETATM    9  C   UNK N   1      30.674  43.923  59.829  0.00  0.00    -0.011 C 
HETATM   10  C   UNK N   1      30.765  44.167  58.489  0.00  0.00    -0.058 C 
HETATM   11  C   UNK N   1      30.584  45.559  57.873  0.00  0.00     0.153 C 
HETATM   12  C   UNK N   1      30.307  46.811  58.769  0.00  0.00     0.115 C 
HETATM   13  C   UNK N   1      28.996  47.479  58.399  0.00  0.00     0.141 C 
HETATM   14  C   UNK N   1      27.634  46.929  58.826  0.00  0.00     0.031 C 
HETATM   15  C   UNK N   1      27.804  45.821  59.867  0.00  0.00    -0.014 C 
HETATM   16  C   UNK N   1      27.375  44.553  59.728  0.00  0.00    -0.018 C 
HETATM   17  C   UNK N   1      27.572  43.534  60.830  0.00  0.00     0.077 C 
HETATM   18  C   UNK N   1      26.207  43.052  61.325  0.00  0.00     0.022 C 
HETATM   19  C   UNK N   1      26.861  46.485  57.561  0.00  0.00     0.027 C 
HETATM   20  C   UNK N   1      26.838  48.060  59.506  0.00  0.00     0.027 C 
HETATM   21  O   UNK N   1      29.035  48.493  57.717  0.00  0.00    -0.297 OA
HETATM   22  C   UNK N   1      31.025  43.061  57.475  0.00  0.00     0.046 C 
ENDROOT
BRANCH   5  23
HETATM   23  O   UNK N   1      32.763  43.689  61.577  0.00  0.00    -0.311 OA
BRANCH  23  24
HETATM   24  C   UNK N   1      34.065  43.461  61.262  0.00  0.00     0.293 C 
HETATM   25  O   UNK N   1      34.361  42.729  60.329  0.00  0.00    -0.259 OA
BRANCH  24  26
HETATM   26  C   UNK N   1      35.125  44.118  62.064  0.00  0.00     0.039 A 
HETATM   27  C   UNK N   1      34.942  44.317  63.446  0.00  0.00     0.017 A 
HETATM   28  C   UNK N   1      35.945  44.918  64.210  0.00  0.00     0.001 A 
HETATM   29  C   UNK N   1      37.138  45.324  63.607  0.00  0.00     0.000 A 
HETATM   30  C   UNK N   1      37.327  45.137  62.236  0.00  0.00     0.001 A 
HETATM   31  C   UNK N   1      36.326  44.540  61.463  0.00  0.00     0.017 A 
ENDBRANCH  24  26
ENDBRANCH  23  24
ENDBRANCH   5  23
BRANCH   3  32
HETATM   32  O   UNK N   1      29.785  40.484  60.737  0.00  0.00    -0.302 OA
BRANCH  32  33
HETATM   33  C   UNK N   1      29.493  39.464  61.590  0.00  0.00     0.256 C 
HETATM   34  O   UNK N   1      30.369  38.928  62.256  0.00  0.00    -0.266 OA
HETATM   35  C   UNK N   1      28.077  39.008  61.721  0.00  0.00     0.126 C 
ENDBRANCH  32  33
ENDBRANCH   3  32
BRANCH  11  36
HETATM   36  O   UNK N   1      31.724  45.825  57.092  0.00  0.00    -0.391 OA
HETATM   37  H   UNK N   1      31.441  45.789  56.141  0.00  0.00     0.210 HD
ENDBRANCH  11  36
TORSDOF 6
ENDMDL
MODEL 8
REMARK VINA RESULT:      -4.5      4.671      8.453
REMARK  6 active torsions:
REMARK  status: ('A' for Active; 'I' for Inactive)
REMARK    1  A    between atoms: C_3  and  O_4 
REMARK    2  A    between atoms: O_4  and  C_5 
REMARK    3  A    between atoms: C_9  and  O_10 
REMARK    4  A    between atoms: O_10  and  C_11 
REMARK    5  A    between atoms: C_11  and  C_13 
REMARK    6  A    between atoms: C_24  and  O_25 
ROOT
HETATM    1  O   UNK N   1      31.668  41.973  61.787  0.00  0.00    -0.294 OA
HETATM    2  C   UNK N   1      31.909  42.871  60.989  0.00  0.00     0.170 C 
HETATM    3  C   UNK N   1      30.734  43.575  60.292  0.00  0.00     0.141 C 
HETATM    4  C   UNK N   1      30.289  44.871  61.043  0.00  0.00     0.081 C 
HETATM    5  C   UNK N   1      29.932  45.841  59.909  0.00  0.00     0.147 C 
HETATM    6  C   UNK N   1      31.033  45.568  58.880  0.00  0.00     0.015 C 
HETATM    7  C   UNK N   1      31.007  44.041  58.827  0.00  0.00     0.054 C 
HETATM    8  C   UNK N   1      30.789  46.222  57.516  0.00  0.00     0.012 C 
HETATM    9  C   UNK N   1      31.367  45.478  61.957  0.00  0.00    -0.011 C 
HETATM   10  C   UNK N   1      31.336  45.444  63.321  0.00  0.00    -0.058 C 
HETATM   11  C   UNK N   1      32.385  46.129  64.204  0.00  0.00     0.153 C 
HETATM   12  C   UNK N   1      33.561  46.949  63.577  0.00  0.00     0.115 C 
HETATM   13  C   UNK N   1      34.910  46.389  63.988  0.00  0.00     0.141 C 
HETATM   14  C   UNK N   1      35.513  45.130  63.362  0.00  0.00     0.031 C 
HETATM   15  C   UNK N   1      34.717  44.711  62.124  0.00  0.00    -0.014 C 
HETATM   16  C   UNK N   1      34.101  43.525  61.962  0.00  0.00    -0.018 C 
HETATM   17  C   UNK N   1      33.357  43.198  60.686  0.00  0.00     0.077 C 
HETATM   18  C   UNK N   1      34.017  41.996  60.006  0.00  0.00     0.022 C 
HETATM   19  C   UNK N   1      35.603  44.031  64.447  0.00  0.00     0.027 C 
HETATM   20  C   UNK N   1      36.942  45.455  62.883  0.00  0.00     0.027 C 
HETATM   21  O   UNK N   1      35.531  46.964  64.871  0.00  0.00    -0.297 OA
HETATM   22  C   UNK N   1      30.264  44.687  64.094  0.00  0.00     0.046 C 
ENDROOT
BRANCH   5  23
HETATM   23  O   UNK N   1      29.928  47.155  60.348  0.00  0.00    -0.311 OA
BRANCH  23  24
HETATM   24  C   UNK N   1      28.838  47.842  60.780  0.00  0.00     0.293 C 
HETATM   25  O   UNK N   1      28.208  48.557  60.014  0.00  0.00    -0.259 OA
BRANCH  24  26
HETATM   26  C   UNK N   1      28.420  47.709  62.196  0.00  0.00     0.039 A 
HETATM   27  C   UNK N   1      29.057  48.469  63.195  0.00  0.00     0.017 A 
HETATM   28  C   UNK N   1      28.654  48.361  64.528  0.00  0.00     0.001 A 
HETATM   29  C   UNK N   1      27.612  47.498  64.878  0.00  0.00     0.000 A 
HETATM   30  C   UNK N   1      26.977  46.735  63.895  0.00  0.00     0.001 A 
HETATM   31  C   UNK N   1      27.378  46.834  62.559  0.00  0.00     0.017 A 
ENDBRANCH  24  26
ENDBRANCH  23  24
ENDBRANCH   5  23
BRANCH   3  32
HETATM   32  O   UNK N   1      29.640  42.711  60.284  0.00  0.00    -0.302 OA
BRANCH  32  33
HETATM   33  C   UNK N   1      29.246  41.936  59.235  0.00  0.00     0.256 C 
HETATM   34  O   UNK N   1      29.868  40.927  58.928  0.00  0.00    -0.266 OA
HETATM   35  C   UNK N   1      28.027  42.322  58.463  0.00  0.00     0.126 C 
ENDBRANCH  32  33
ENDBRANCH   3  32
BRANCH  11  36
HETATM   36  O   UNK N   1      31.698  46.969  65.100  0.00  0.00    -0.391 OA
HETATM   37  H   UNK N   1      32.142  46.876  65.984  0.00  0.00     0.210 HD
ENDBRANCH  11  36
TORSDOF 6
ENDMDL
MODEL 9
REMARK VINA RESULT:      -4.4      4.090      7.408
REMARK  6 active torsions:
REMARK  status: ('A' for Active; 'I' for Inactive)
REMARK    1  A    between atoms: C_3  and  O_4 
REMARK    2  A    between atoms: O_4  and  C_5 
REMARK    3  A    between atoms: C_9  and  O_10 
REMARK    4  A    between atoms: O_10  and  C_11 
REMARK    5  A    between atoms: C_11  and  C_13 
REMARK    6  A    between atoms: C_24  and  O_25 
ROOT
HETATM    1  O   UNK N   1      27.230  41.689  60.134  0.00  0.00    -0.294 OA
HETATM    2  C   UNK N   1      26.877  42.506  59.293  0.00  0.00     0.170 C 
HETATM    3  C   UNK N   1      26.872  43.997  59.667  0.00  0.00     0.141 C 
HETATM    4  C   UNK N   1      28.200  44.714  59.263  0.00  0.00     0.081 C 
HETATM    5  C   UNK N   1      27.735  46.100  58.797  0.00  0.00     0.147 C 
HETATM    6  C   UNK N   1      26.456  45.776  58.019  0.00  0.00     0.015 C 
HETATM    7  C   UNK N   1      25.744  44.850  59.005  0.00  0.00     0.054 C 
HETATM    8  C   UNK N   1      25.625  47.007  57.643  0.00  0.00     0.012 C 
HETATM    9  C   UNK N   1      28.993  44.006  58.152  0.00  0.00    -0.011 C 
HETATM   10  C   UNK N   1      30.164  43.332  58.343  0.00  0.00    -0.058 C 
HETATM   11  C   UNK N   1      30.971  42.705  57.200  0.00  0.00     0.153 C 
HETATM   12  C   UNK N   1      30.501  42.831  55.714  0.00  0.00     0.115 C 
HETATM   13  C   UNK N   1      30.280  41.468  55.083  0.00  0.00     0.141 C 
HETATM   14  C   UNK N   1      29.038  40.619  55.357  0.00  0.00     0.031 C 
HETATM   15  C   UNK N   1      27.979  41.437  56.098  0.00  0.00    -0.014 C 
HETATM   16  C   UNK N   1      27.468  41.134  57.306  0.00  0.00    -0.018 C 
HETATM   17  C   UNK N   1      26.404  41.998  57.946  0.00  0.00     0.077 C 
HETATM   18  C   UNK N   1      25.126  41.176  58.134  0.00  0.00     0.022 C 
HETATM   19  C   UNK N   1      29.470  39.334  56.103  0.00  0.00     0.027 C 
HETATM   20  C   UNK N   1      28.416  40.207  54.007  0.00  0.00     0.027 C 
HETATM   21  O   UNK N   1      31.144  41.028  54.338  0.00  0.00    -0.297 OA
HETATM   22  C   UNK N   1      30.761  43.112  59.727  0.00  0.00     0.046 C 
ENDROOT
BRANCH   5  23
HETATM   23  O   UNK N   1      28.693  46.719  58.010  0.00  0.00    -0.311 OA
BRANCH  23  24
HETATM   24  C   UNK N   1      29.316  47.892  58.298  0.00  0.00     0.293 C 
HETATM   25  O   UNK N   1      29.673  48.144  59.440  0.00  0.00    -0.259 OA
BRANCH  24  26
HETATM   26  C   UNK N   1      29.562  48.863  57.205  0.00  0.00     0.039 A 
HETATM   27  C   UNK N   1      28.493  49.603  56.665  0.00  0.00     0.017 A 
HETATM   28  C   UNK N   1      28.723  50.533  55.648  0.00  0.00     0.001 A 
HETATM   29  C   UNK N   1      30.016  50.735  55.162  0.00  0.00     0.000 A 
HETATM   30  C   UNK N   1      31.083  50.001  55.686  0.00  0.00     0.001 A 
HETATM   31  C   UNK N   1      30.861  49.065  56.701  0.00  0.00     0.017 A 
ENDBRANCH  24  26
ENDBRANCH  23  24
ENDBRANCH   5  23
BRANCH   3  32
HETATM   32  O   UNK N   1      26.753  44.106  61.052  0.00  0.00    -0.302 OA
BRANCH  32  33
HETATM   33  C   UNK N   1      27.725  44.539  61.902  0.00  0.00     0.256 C 
HETATM   34  O   UNK N   1      28.619  43.789  62.271  0.00  0.00    -0.266 OA
HETATM   35  C   UNK N   1      27.700  45.955  62.375  0.00  0.00     0.126 C 
ENDBRANCH  32  33
ENDBRANCH   3  32
BRANCH  11  36
HETATM   36  O   UNK N   1      32.283  43.206  57.287  0.00  0.00    -0.391 OA
HETATM   37  H   UNK N   1      32.215  44.144  57.608  0.00  0.00     0.210 HD
ENDBRANCH  11  36
TORSDOF 6
ENDMDL
