MODEL 1
REMARK VINA RESULT:      -5.7      0.000      0.000
REMARK  9 active torsions:
REMARK  status: ('A' for Active; 'I' for Inactive)
REMARK    1  A    between atoms: C_2  and  O_3 
REMARK    2  A    between atoms: C_2  and  C_36 
REMARK    3  A    between atoms: O_3  and  C_4 
REMARK    4  A    between atoms: C_6  and  O_7 
REMARK    5  A    between atoms: C_9  and  O_10 
REMARK    6  A    between atoms: O_10  and  C_11 
REMARK    7  A    between atoms: C_18  and  O_19 
REMARK    8  A    between atoms: C_22  and  O_23 
REMARK    9  A    between atoms: O_23  and  C_24 
ROOT
HETATM    1  C   UNK N   1      29.268  46.926  60.149  0.00  0.00     0.146 C 
HETATM    2  C   UNK N   1      28.748  45.822  59.207  0.00  0.00     0.075 C 
HETATM    3  C   UNK N   1      27.450  45.364  59.921  0.00  0.00     0.095 C 
HETATM    4  C   UNK N   1      26.824  43.988  59.479  0.00  0.00     0.174 C 
HETATM    5  C   UNK N   1      26.437  43.780  57.974  0.00  0.00     0.036 C 
HETATM    6  C   UNK N   1      27.615  43.492  57.060  0.00  0.00    -0.023 C 
HETATM    7  C   UNK N   1      27.979  42.214  56.784  0.00  0.00    -0.019 C 
HETATM    8  C   UNK N   1      29.116  41.821  55.826  0.00  0.00    -0.004 C 
HETATM    9  C   UNK N   1      30.419  42.637  56.111  0.00  0.00     0.132 C 
HETATM   10  C   UNK N   1      30.998  42.423  57.531  0.00  0.00     0.070 C 
HETATM   11  C   UNK N   1      31.795  43.662  58.020  0.00  0.00     0.162 C 
HETATM   12  C   UNK N   1      30.860  44.849  58.205  0.00  0.00    -0.058 C 
HETATM   13  C   UNK N   1      29.799  44.742  59.052  0.00  0.00    -0.011 C 
HETATM   14  C   UNK N   1      31.134  46.094  57.381  0.00  0.00     0.046 C 
HETATM   15  C   UNK N   1      29.373  40.303  55.968  0.00  0.00     0.021 C 
HETATM   16  C   UNK N   1      28.645  42.097  54.380  0.00  0.00     0.021 C 
HETATM   17  C   UNK N   1      25.568  44.894  57.383  0.00  0.00     0.017 C 
HETATM   18  C   UNK N   1      27.871  45.337  61.412  0.00  0.00     0.048 C 
HETATM   19  C   UNK N   1      29.063  46.306  61.545  0.00  0.00     0.015 C 
HETATM   20  C   UNK N   1      28.929  47.299  62.704  0.00  0.00     0.012 C 
ENDROOT
BRANCH   1  21
HETATM   21  O   UNK N   1      28.490  48.067  59.994  0.00  0.00    -0.311 OA
BRANCH  21  22
HETATM   22  C   UNK N   1      28.991  49.295  59.677  0.00  0.00     0.293 C 
HETATM   23  O   UNK N   1      29.356  50.064  60.555  0.00  0.00    -0.259 OA
BRANCH  22  24
HETATM   24  C   UNK N   1      29.104  49.699  58.257  0.00  0.00     0.039 A 
HETATM   25  C   UNK N   1      30.330  49.594  57.580  0.00  0.00     0.017 A 
HETATM   26  C   UNK N   1      30.429  49.976  56.237  0.00  0.00     0.001 A 
HETATM   27  C   UNK N   1      29.306  50.464  55.563  0.00  0.00     0.000 A 
HETATM   28  C   UNK N   1      28.083  50.573  56.228  0.00  0.00     0.001 A 
HETATM   29  C   UNK N   1      27.979  50.194  57.568  0.00  0.00     0.017 A 
ENDBRANCH  22  24
ENDBRANCH  21  22
ENDBRANCH   1  21
BRANCH   3  30
HETATM   30  O   UNK N   1      26.501  46.395  59.736  0.00  0.00    -0.386 OA
HETATM   31  H   UNK N   1      26.759  46.936  58.945  0.00  0.00     0.210 HD
ENDBRANCH   3  30
BRANCH   4  32
HETATM   32  O   UNK N   1      25.709  43.760  60.277  0.00  0.00    -0.313 OA
BRANCH  32  33
HETATM   33  C   UNK N   1      25.458  42.595  60.935  0.00  0.00     0.255 C 
HETATM   34  O   UNK N   1      24.404  42.426  61.535  0.00  0.00    -0.266 OA
HETATM   35  C   UNK N   1      26.472  41.500  60.901  0.00  0.00     0.126 C 
ENDBRANCH  32  33
ENDBRANCH   4  32
BRANCH  11  36
HETATM   36  O   UNK N   1      32.427  43.403  59.222  0.00  0.00    -0.312 OA
BRANCH  36  37
HETATM   37  C   UNK N   1      33.639  42.795  59.315  0.00  0.00     0.255 C 
HETATM   38  O   UNK N   1      34.648  43.333  58.879  0.00  0.00    -0.266 OA
HETATM   39  C   UNK N   1      33.741  41.468  59.989  0.00  0.00     0.126 C 
ENDBRANCH  36  37
ENDBRANCH  11  36
BRANCH   9  40
HETATM   40  O   UNK N   1      31.410  42.333  55.159  0.00  0.00    -0.394 OA
HETATM   41  H   UNK N   1      32.095  41.775  55.609  0.00  0.00     0.210 HD
ENDBRANCH   9  40
TORSDOF 9
ENDMDL
MODEL 2
REMARK VINA RESULT:      -5.7      3.837      7.160
REMARK  9 active torsions:
REMARK  status: ('A' for Active; 'I' for Inactive)
REMARK    1  A    between atoms: C_2  and  O_3 
REMARK    2  A    between atoms: C_2  and  C_36 
REMARK    3  A    between atoms: O_3  and  C_4 
REMARK    4  A    between atoms: C_6  and  O_7 
REMARK    5  A    between atoms: C_9  and  O_10 
REMARK    6  A    between atoms: O_10  and  C_11 
REMARK    7  A    between atoms: C_18  and  O_19 
REMARK    8  A    between atoms: C_22  and  O_23 
REMARK    9  A    between atoms: O_23  and  C_24 
ROOT
HETATM    1  C   UNK N   1      28.114  42.498  58.609  0.00  0.00     0.146 C 
HETATM    2  C   UNK N   1      28.608  41.573  57.480  0.00  0.00     0.075 C 
HETATM    3  C   UNK N   1      28.452  42.471  56.226  0.00  0.00     0.095 C 
HETATM    4  C   UNK N   1      28.490  41.767  54.817  0.00  0.00     0.174 C 
HETATM    5  C   UNK N   1      29.747  40.914  54.431  0.00  0.00     0.036 C 
HETATM    6  C   UNK N   1      29.792  39.539  55.075  0.00  0.00    -0.023 C 
HETATM    7  C   UNK N   1      29.288  38.456  54.429  0.00  0.00    -0.019 C 
HETATM    8  C   UNK N   1      29.341  37.018  54.971  0.00  0.00    -0.004 C 
HETATM    9  C   UNK N   1      28.872  36.945  56.461  0.00  0.00     0.132 C 
HETATM   10  C   UNK N   1      27.411  37.406  56.685  0.00  0.00     0.070 C 
HETATM   11  C   UNK N   1      27.200  37.972  58.116  0.00  0.00     0.162 C 
HETATM   12  C   UNK N   1      27.997  39.255  58.297  0.00  0.00    -0.058 C 
HETATM   13  C   UNK N   1      27.781  40.304  57.456  0.00  0.00    -0.011 C 
HETATM   14  C   UNK N   1      29.048  39.281  59.392  0.00  0.00     0.046 C 
HETATM   15  C   UNK N   1      28.458  36.124  54.071  0.00  0.00     0.021 C 
HETATM   16  C   UNK N   1      30.799  36.517  54.867  0.00  0.00     0.021 C 
HETATM   17  C   UNK N   1      31.086  41.632  54.624  0.00  0.00     0.017 C 
HETATM   18  C   UNK N   1      27.090  43.167  56.470  0.00  0.00     0.048 C 
HETATM   19  C   UNK N   1      26.856  43.143  57.994  0.00  0.00     0.015 C 
HETATM   20  C   UNK N   1      26.446  44.498  58.579  0.00  0.00     0.012 C 
ENDROOT
BRANCH   1  21
HETATM   21  O   UNK N   1      29.083  43.458  58.875  0.00  0.00    -0.311 OA
BRANCH  21  22
HETATM   22  C   UNK N   1      29.924  43.415  59.949  0.00  0.00     0.293 C 
HETATM   23  O   UNK N   1      29.558  43.820  61.042  0.00  0.00    -0.259 OA
BRANCH  22  24
HETATM   24  C   UNK N   1      31.290  42.865  59.791  0.00  0.00     0.039 A 
HETATM   25  C   UNK N   1      32.226  43.505  58.961  0.00  0.00     0.017 A 
HETATM   26  C   UNK N   1      33.515  42.980  58.818  0.00  0.00     0.001 A 
HETATM   27  C   UNK N   1      33.877  41.816  59.501  0.00  0.00     0.000 A 
HETATM   28  C   UNK N   1      32.954  41.172  60.327  0.00  0.00     0.001 A 
HETATM   29  C   UNK N   1      31.666  41.691  60.473  0.00  0.00     0.017 A 
ENDBRANCH  22  24
ENDBRANCH  21  22
ENDBRANCH   1  21
BRANCH   3  30
HETATM   30  O   UNK N   1      29.476  43.443  56.294  0.00  0.00    -0.386 OA
HETATM   31  H   UNK N   1      29.873  43.560  55.392  0.00  0.00     0.210 HD
ENDBRANCH   3  30
BRANCH   4  32
HETATM   32  O   UNK N   1      28.285  42.747  53.854  0.00  0.00    -0.313 OA
BRANCH  32  33
HETATM   33  C   UNK N   1      28.230  42.509  52.514  0.00  0.00     0.255 C 
HETATM   34  O   UNK N   1      28.978  43.093  51.741  0.00  0.00    -0.266 OA
HETATM   35  C   UNK N   1      27.261  41.505  51.986  0.00  0.00     0.126 C 
ENDBRANCH  32  33
ENDBRANCH   4  32
BRANCH  11  36
HETATM   36  O   UNK N   1      25.864  38.241  58.350  0.00  0.00    -0.312 OA
BRANCH  36  37
HETATM   37  C   UNK N   1      25.375  38.604  59.565  0.00  0.00     0.255 C 
HETATM   38  O   UNK N   1      25.554  37.901  60.551  0.00  0.00    -0.266 OA
HETATM   39  C   UNK N   1      24.639  39.895  59.700  0.00  0.00     0.126 C 
ENDBRANCH  36  37
ENDBRANCH  11  36
BRANCH   9  40
HETATM   40  O   UNK N   1      29.026  35.640  56.963  0.00  0.00    -0.394 OA
HETATM   41  H   UNK N   1      29.941  35.570  57.339  0.00  0.00     0.210 HD
ENDBRANCH   9  40
TORSDOF 9
ENDMDL
MODEL 3
REMARK VINA RESULT:      -5.5      4.560      8.022
REMARK  9 active torsions:
REMARK  status: ('A' for Active; 'I' for Inactive)
REMARK    1  A    between atoms: C_2  and  O_3 
REMARK    2  A    between atoms: C_2  and  C_36 
REMARK    3  A    between atoms: O_3  and  C_4 
REMARK    4  A    between atoms: C_6  and  O_7 
REMARK    5  A    between atoms: C_9  and  O_10 
REMARK    6  A    between atoms: O_10  and  C_11 
REMARK    7  A    between atoms: C_18  and  O_19 
REMARK    8  A    between atoms: C_22  and  O_23 
REMARK    9  A    between atoms: O_23  and  C_24 
ROOT
HETATM    1  C   UNK N   1      27.385  41.176  53.509  0.00  0.00     0.146 C 
HETATM    2  C   UNK N   1      27.712  40.966  55.001  0.00  0.00     0.075 C 
HETATM    3  C   UNK N   1      28.698  42.127  55.289  0.00  0.00     0.095 C 
HETATM    4  C   UNK N   1      29.562  42.038  56.603  0.00  0.00     0.174 C 
HETATM    5  C   UNK N   1      28.830  41.906  57.983  0.00  0.00     0.036 C 
HETATM    6  C   UNK N   1      28.306  40.512  58.282  0.00  0.00    -0.023 C 
HETATM    7  C   UNK N   1      29.056  39.628  58.986  0.00  0.00    -0.019 C 
HETATM    8  C   UNK N   1      28.590  38.219  59.389  0.00  0.00    -0.004 C 
HETATM    9  C   UNK N   1      27.958  37.453  58.182  0.00  0.00     0.132 C 
HETATM   10  C   UNK N   1      28.931  37.230  56.997  0.00  0.00     0.070 C 
HETATM   11  C   UNK N   1      28.176  37.128  55.644  0.00  0.00     0.162 C 
HETATM   12  C   UNK N   1      27.520  38.459  55.306  0.00  0.00    -0.058 C 
HETATM   13  C   UNK N   1      28.287  39.580  55.210  0.00  0.00    -0.011 C 
HETATM   14  C   UNK N   1      26.011  38.478  55.142  0.00  0.00     0.046 C 
HETATM   15  C   UNK N   1      29.802  37.447  59.959  0.00  0.00     0.021 C 
HETATM   16  C   UNK N   1      27.538  38.362  60.512  0.00  0.00     0.021 C 
HETATM   17  C   UNK N   1      27.732  42.947  58.222  0.00  0.00     0.017 C 
HETATM   18  C   UNK N   1      29.595  42.136  54.026  0.00  0.00     0.048 C 
HETATM   19  C   UNK N   1      28.767  41.486  52.899  0.00  0.00     0.015 C 
HETATM   20  C   UNK N   1      28.756  42.290  51.595  0.00  0.00     0.012 C 
ENDROOT
BRANCH   1  21
HETATM   21  O   UNK N   1      26.528  42.261  53.374  0.00  0.00    -0.311 OA
BRANCH  21  22
HETATM   22  C   UNK N   1      25.277  42.183  52.837  0.00  0.00     0.293 C 
HETATM   23  O   UNK N   1      24.458  41.391  53.280  0.00  0.00    -0.259 OA
BRANCH  22  24
HETATM   24  C   UNK N   1      24.902  43.072  51.713  0.00  0.00     0.039 A 
HETATM   25  C   UNK N   1      25.112  42.669  50.384  0.00  0.00     0.017 A 
HETATM   26  C   UNK N   1      24.754  43.514  49.327  0.00  0.00     0.001 A 
HETATM   27  C   UNK N   1      24.185  44.763  49.590  0.00  0.00     0.000 A 
HETATM   28  C   UNK N   1      23.974  45.173  50.908  0.00  0.00     0.001 A 
HETATM   29  C   UNK N   1      24.330  44.334  51.966  0.00  0.00     0.017 A 
ENDBRANCH  22  24
ENDBRANCH  21  22
ENDBRANCH   1  21
BRANCH   3  30
HETATM   30  O   UNK N   1      27.930  43.314  55.309  0.00  0.00    -0.386 OA
HETATM   31  H   UNK N   1      27.577  43.487  54.398  0.00  0.00     0.210 HD
ENDBRANCH   3  30
BRANCH   4  32
HETATM   32  O   UNK N   1      30.398  43.148  56.630  0.00  0.00    -0.313 OA
BRANCH  32  33
HETATM   33  C   UNK N   1      31.741  43.094  56.844  0.00  0.00     0.255 C 
HETATM   34  O   UNK N   1      32.524  43.004  55.907  0.00  0.00    -0.266 OA
HETATM   35  C   UNK N   1      32.266  43.173  58.239  0.00  0.00     0.126 C 
ENDBRANCH  32  33
ENDBRANCH   4  32
BRANCH  11  36
HETATM   36  O   UNK N   1      29.038  36.784  54.620  0.00  0.00    -0.312 OA
BRANCH  36  37
HETATM   37  C   UNK N   1      30.382  36.660  54.781  0.00  0.00     0.255 C 
HETATM   38  O   UNK N   1      31.146  37.525  54.376  0.00  0.00    -0.266 OA
HETATM   39  C   UNK N   1      30.926  35.466  55.492  0.00  0.00     0.126 C 
ENDBRANCH  36  37
ENDBRANCH  11  36
BRANCH   9  40
HETATM   40  O   UNK N   1      27.449  36.209  58.598  0.00  0.00    -0.394 OA
HETATM   41  H   UNK N   1      26.528  36.360  58.935  0.00  0.00     0.210 HD
ENDBRANCH   9  40
TORSDOF 9
ENDMDL
MODEL 4
REMARK VINA RESULT:      -5.4      2.271      5.224
REMARK  9 active torsions:
REMARK  status: ('A' for Active; 'I' for Inactive)
REMARK    1  A    between atoms: C_2  and  O_3 
REMARK    2  A    between atoms: C_2  and  C_36 
REMARK    3  A    between atoms: O_3  and  C_4 
REMARK    4  A    between atoms: C_6  and  O_7 
REMARK    5  A    between atoms: C_9  and  O_10 
REMARK    6  A    between atoms: O_10  and  C_11 
REMARK    7  A    between atoms: C_18  and  O_19 
REMARK    8  A    between atoms: C_22  and  O_23 
REMARK    9  A    between atoms: O_23  and  C_24 
ROOT
HETATM    1  C   UNK N   1      29.152  45.086  57.670  0.00  0.00     0.146 C 
HETATM    2  C   UNK N   1      29.196  43.580  57.999  0.00  0.00     0.075 C 
HETATM    3  C   UNK N   1      30.421  43.484  58.942  0.00  0.00     0.095 C 
HETATM    4  C   UNK N   1      31.034  42.055  59.196  0.00  0.00     0.174 C 
HETATM    5  C   UNK N   1      30.111  40.927  59.774  0.00  0.00     0.036 C 
HETATM    6  C   UNK N   1      29.175  40.301  58.754  0.00  0.00    -0.023 C 
HETATM    7  C   UNK N   1      29.537  39.181  58.080  0.00  0.00    -0.019 C 
HETATM    8  C   UNK N   1      28.639  38.441  57.076  0.00  0.00    -0.004 C 
HETATM    9  C   UNK N   1      27.988  39.425  56.049  0.00  0.00     0.132 C 
HETATM   10  C   UNK N   1      29.012  40.196  55.180  0.00  0.00     0.070 C 
HETATM   11  C   UNK N   1      28.454  41.570  54.718  0.00  0.00     0.162 C 
HETATM   12  C   UNK N   1      28.258  42.488  55.915  0.00  0.00    -0.058 C 
HETATM   13  C   UNK N   1      29.318  42.779  56.719  0.00  0.00    -0.011 C 
HETATM   14  C   UNK N   1      26.855  43.000  56.186  0.00  0.00     0.046 C 
HETATM   15  C   UNK N   1      29.489  37.372  56.352  0.00  0.00     0.021 C 
HETATM   16  C   UNK N   1      27.526  37.717  57.867  0.00  0.00     0.021 C 
HETATM   17  C   UNK N   1      29.333  41.326  61.031  0.00  0.00     0.017 C 
HETATM   18  C   UNK N   1      31.450  44.424  58.265  0.00  0.00     0.048 C 
HETATM   19  C   UNK N   1      30.636  45.421  57.417  0.00  0.00     0.015 C 
HETATM   20  C   UNK N   1      31.035  46.885  57.627  0.00  0.00     0.012 C 
ENDROOT
BRANCH   1  21
HETATM   21  O   UNK N   1      28.668  45.783  58.770  0.00  0.00    -0.311 OA
BRANCH  21  22
HETATM   22  C   UNK N   1      27.663  46.704  58.707  0.00  0.00     0.293 C 
HETATM   23  O   UNK N   1      26.512  46.388  58.972  0.00  0.00    -0.259 OA
BRANCH  22  24
HETATM   24  C   UNK N   1      27.969  48.101  58.325  0.00  0.00     0.039 A 
HETATM   25  C   UNK N   1      27.736  48.551  57.015  0.00  0.00     0.017 A 
HETATM   26  C   UNK N   1      28.027  49.873  56.661  0.00  0.00     0.001 A 
HETATM   27  C   UNK N   1      28.551  50.753  57.612  0.00  0.00     0.000 A 
HETATM   28  C   UNK N   1      28.787  50.316  58.916  0.00  0.00     0.001 A 
HETATM   29  C   UNK N   1      28.500  48.997  59.275  0.00  0.00     0.017 A 
ENDBRANCH  22  24
ENDBRANCH  21  22
ENDBRANCH   1  21
BRANCH   3  30
HETATM   30  O   UNK N   1      30.029  44.054  60.175  0.00  0.00    -0.386 OA
HETATM   31  H   UNK N   1      29.048  43.954  60.281  0.00  0.00     0.210 HD
ENDBRANCH   3  30
BRANCH   4  32
HETATM   32  O   UNK N   1      32.139  42.214  60.023  0.00  0.00    -0.313 OA
BRANCH  32  33
HETATM   33  C   UNK N   1      33.376  41.707  59.762  0.00  0.00     0.255 C 
HETATM   34  O   UNK N   1      33.656  40.551  60.052  0.00  0.00    -0.266 OA
HETATM   35  C   UNK N   1      34.394  42.566  59.088  0.00  0.00     0.126 C 
ENDBRANCH  32  33
ENDBRANCH   4  32
BRANCH  11  36
HETATM   36  O   UNK N   1      29.316  42.180  53.825  0.00  0.00    -0.312 OA
BRANCH  36  37
HETATM   37  C   UNK N   1      28.943  42.593  52.586  0.00  0.00     0.255 C 
HETATM   38  O   UNK N   1      29.615  42.317  51.602  0.00  0.00    -0.266 OA
HETATM   39  C   UNK N   1      27.676  43.366  52.424  0.00  0.00     0.126 C 
ENDBRANCH  36  37
ENDBRANCH  11  36
BRANCH   9  40
HETATM   40  O   UNK N   1      27.093  38.740  55.207  0.00  0.00    -0.394 OA
HETATM   41  H   UNK N   1      27.531  38.642  54.322  0.00  0.00     0.210 HD
ENDBRANCH   9  40
TORSDOF 9
ENDMDL
MODEL 5
REMARK VINA RESULT:      -5.4      2.847      6.682
REMARK  9 active torsions:
REMARK  status: ('A' for Active; 'I' for Inactive)
REMARK    1  A    between atoms: C_2  and  O_3 
REMARK    2  A    between atoms: C_2  and  C_36 
REMARK    3  A    between atoms: O_3  and  C_4 
REMARK    4  A    between atoms: C_6  and  O_7 
REMARK    5  A    between atoms: C_9  and  O_10 
REMARK    6  A    between atoms: O_10  and  C_11 
REMARK    7  A    between atoms: C_18  and  O_19 
REMARK    8  A    between atoms: C_22  and  O_23 
REMARK    9  A    between atoms: O_23  and  C_24 
ROOT
HETATM    1  C   UNK N   1      27.398  41.425  56.272  0.00  0.00     0.146 C 
HETATM    2  C   UNK N   1      28.467  41.117  57.339  0.00  0.00     0.075 C 
HETATM    3  C   UNK N   1      27.635  40.432  58.453  0.00  0.00     0.095 C 
HETATM    4  C   UNK N   1      28.291  40.308  59.880  0.00  0.00     0.174 C 
HETATM    5  C   UNK N   1      29.663  39.564  60.020  0.00  0.00     0.036 C 
HETATM    6  C   UNK N   1      30.866  40.382  59.582  0.00  0.00    -0.023 C 
HETATM    7  C   UNK N   1      31.565  41.118  60.483  0.00  0.00    -0.019 C 
HETATM    8  C   UNK N   1      32.829  41.929  60.150  0.00  0.00    -0.004 C 
HETATM    9  C   UNK N   1      32.631  42.805  58.869  0.00  0.00     0.132 C 
HETATM   10  C   UNK N   1      31.500  43.856  58.993  0.00  0.00     0.070 C 
HETATM   11  C   UNK N   1      30.877  44.195  57.612  0.00  0.00     0.162 C 
HETATM   12  C   UNK N   1      30.158  42.980  57.045  0.00  0.00    -0.058 C 
HETATM   13  C   UNK N   1      29.156  42.398  57.762  0.00  0.00    -0.011 C 
HETATM   14  C   UNK N   1      30.638  42.437  55.711  0.00  0.00     0.046 C 
HETATM   15  C   UNK N   1      33.182  42.809  61.370  0.00  0.00     0.021 C 
HETATM   16  C   UNK N   1      33.991  40.938  59.917  0.00  0.00     0.021 C 
HETATM   17  C   UNK N   1      29.703  38.177  59.371  0.00  0.00     0.017 C 
HETATM   18  C   UNK N   1      26.349  41.294  58.499  0.00  0.00     0.048 C 
HETATM   19  C   UNK N   1      26.224  41.964  57.115  0.00  0.00     0.015 C 
HETATM   20  C   UNK N   1      24.834  41.831  56.485  0.00  0.00     0.012 C 
ENDROOT
BRANCH   1  21
HETATM   21  O   UNK N   1      27.043  40.250  55.623  0.00  0.00    -0.311 OA
BRANCH  21  22
HETATM   22  C   UNK N   1      27.167  40.054  54.278  0.00  0.00     0.293 C 
HETATM   23  O   UNK N   1      27.014  38.942  53.795  0.00  0.00    -0.259 OA
BRANCH  22  24
HETATM   24  C   UNK N   1      27.479  41.200  53.394  0.00  0.00     0.039 A 
HETATM   25  C   UNK N   1      28.780  41.387  52.900  0.00  0.00     0.017 A 
HETATM   26  C   UNK N   1      29.068  42.472  52.064  0.00  0.00     0.001 A 
HETATM   27  C   UNK N   1      28.059  43.375  51.716  0.00  0.00     0.000 A 
HETATM   28  C   UNK N   1      26.763  43.198  52.203  0.00  0.00     0.001 A 
HETATM   29  C   UNK N   1      26.471  42.118  53.038  0.00  0.00     0.017 A 
ENDBRANCH  22  24
ENDBRANCH  21  22
ENDBRANCH   1  21
BRANCH   3  30
HETATM   30  O   UNK N   1      27.301  39.144  57.974  0.00  0.00    -0.386 OA
HETATM   31  H   UNK N   1      26.685  38.709  58.619  0.00  0.00     0.210 HD
ENDBRANCH   3  30
BRANCH   4  32
HETATM   32  O   UNK N   1      27.357  39.713  60.719  0.00  0.00    -0.313 OA
BRANCH  32  33
HETATM   33  C   UNK N   1      27.407  39.755  62.079  0.00  0.00     0.255 C 
HETATM   34  O   UNK N   1      27.345  38.729  62.743  0.00  0.00    -0.266 OA
HETATM   35  C   UNK N   1      27.565  41.071  62.767  0.00  0.00     0.126 C 
ENDBRANCH  32  33
ENDBRANCH   4  32
BRANCH  11  36
HETATM   36  O   UNK N   1      29.974  45.237  57.717  0.00  0.00    -0.312 OA
BRANCH  36  37
HETATM   37  C   UNK N   1      30.343  46.532  57.902  0.00  0.00     0.255 C 
HETATM   38  O   UNK N   1      30.987  47.130  57.051  0.00  0.00    -0.266 OA
HETATM   39  C   UNK N   1      29.924  47.241  59.147  0.00  0.00     0.126 C 
ENDBRANCH  36  37
ENDBRANCH  11  36
BRANCH   9  40
HETATM   40  O   UNK N   1      33.830  43.458  58.528  0.00  0.00    -0.394 OA
HETATM   41  H   UNK N   1      33.909  43.439  57.539  0.00  0.00     0.210 HD
ENDBRANCH   9  40
TORSDOF 9
ENDMDL
MODEL 6
REMARK VINA RESULT:      -5.4      2.402      7.480
REMARK  9 active torsions:
REMARK  status: ('A' for Active; 'I' for Inactive)
REMARK    1  A    between atoms: C_2  and  O_3 
REMARK    2  A    between atoms: C_2  and  C_36 
REMARK    3  A    between atoms: O_3  and  C_4 
REMARK    4  A    between atoms: C_6  and  O_7 
REMARK    5  A    between atoms: C_9  and  O_10 
REMARK    6  A    between atoms: O_10  and  C_11 
REMARK    7  A    between atoms: C_18  and  O_19 
REMARK    8  A    between atoms: C_22  and  O_23 
REMARK    9  A    between atoms: O_23  and  C_24 
ROOT
HETATM    1  C   UNK N   1      28.459  40.485  58.304  0.00  0.00     0.146 C 
HETATM    2  C   UNK N   1      29.162  41.848  58.468  0.00  0.00     0.075 C 
HETATM    3  C   UNK N   1      30.164  41.567  59.617  0.00  0.00     0.095 C 
HETATM    4  C   UNK N   1      30.805  42.809  60.343  0.00  0.00     0.174 C 
HETATM    5  C   UNK N   1      31.601  43.856  59.490  0.00  0.00     0.036 C 
HETATM    6  C   UNK N   1      30.726  44.818  58.705  0.00  0.00    -0.023 C 
HETATM    7  C   UNK N   1      30.379  46.021  59.228  0.00  0.00    -0.019 C 
HETATM    8  C   UNK N   1      29.550  47.085  58.490  0.00  0.00    -0.004 C 
HETATM    9  C   UNK N   1      28.273  46.466  57.832  0.00  0.00     0.132 C 
HETATM   10  C   UNK N   1      27.292  45.822  58.843  0.00  0.00     0.070 C 
HETATM   11  C   UNK N   1      26.466  44.679  58.193  0.00  0.00     0.162 C 
HETATM   12  C   UNK N   1      27.378  43.522  57.812  0.00  0.00    -0.058 C 
HETATM   13  C   UNK N   1      28.137  42.922  58.770  0.00  0.00    -0.011 C 
HETATM   14  C   UNK N   1      27.434  43.124  56.349  0.00  0.00     0.046 C 
HETATM   15  C   UNK N   1      29.169  48.195  59.496  0.00  0.00     0.021 C 
HETATM   16  C   UNK N   1      30.438  47.713  57.393  0.00  0.00     0.021 C 
HETATM   17  C   UNK N   1      32.672  43.251  58.578  0.00  0.00     0.017 C 
HETATM   18  C   UNK N   1      29.326  40.712  60.600  0.00  0.00     0.048 C 
HETATM   19  C   UNK N   1      28.209  40.056  59.764  0.00  0.00     0.015 C 
HETATM   20  C   UNK N   1      28.060  38.550  60.000  0.00  0.00     0.012 C 
ENDROOT
BRANCH   1  21
HETATM   21  O   UNK N   1      29.317  39.598  57.667  0.00  0.00    -0.311 OA
BRANCH  21  22
HETATM   22  C   UNK N   1      29.101  39.091  56.419  0.00  0.00     0.293 C 
HETATM   23  O   UNK N   1      28.930  37.891  56.257  0.00  0.00    -0.259 OA
BRANCH  22  24
HETATM   24  C   UNK N   1      29.063  40.000  55.252  0.00  0.00     0.039 A 
HETATM   25  C   UNK N   1      30.129  40.878  54.996  0.00  0.00     0.017 A 
HETATM   26  C   UNK N   1      30.087  41.734  53.890  0.00  0.00     0.001 A 
HETATM   27  C   UNK N   1      28.983  41.719  53.033  0.00  0.00     0.000 A 
HETATM   28  C   UNK N   1      27.918  40.850  53.280  0.00  0.00     0.001 A 
HETATM   29  C   UNK N   1      27.954  39.994  54.382  0.00  0.00     0.017 A 
ENDBRANCH  22  24
ENDBRANCH  21  22
ENDBRANCH   1  21
BRANCH   3  30
HETATM   30  O   UNK N   1      31.188  40.758  59.072  0.00  0.00    -0.386 OA
HETATM   31  H   UNK N   1      30.801  39.887  58.796  0.00  0.00     0.210 HD
ENDBRANCH   3  30
BRANCH   4  32
HETATM   32  O   UNK N   1      31.623  42.324  61.357  0.00  0.00    -0.313 OA
BRANCH  32  33
HETATM   33  C   UNK N   1      31.753  42.902  62.583  0.00  0.00     0.255 C 
HETATM   34  O   UNK N   1      31.176  42.443  63.559  0.00  0.00    -0.266 OA
HETATM   35  C   UNK N   1      32.632  44.098  62.740  0.00  0.00     0.126 C 
ENDBRANCH  32  33
ENDBRANCH   4  32
BRANCH  11  36
HETATM   36  O   UNK N   1      25.496  44.214  59.061  0.00  0.00    -0.312 OA
BRANCH  36  37
HETATM   37  C   UNK N   1      24.621  43.223  58.745  0.00  0.00     0.255 C 
HETATM   38  O   UNK N   1      23.974  43.262  57.708  0.00  0.00    -0.266 OA
HETATM   39  C   UNK N   1      24.475  42.057  59.665  0.00  0.00     0.126 C 
ENDBRANCH  36  37
ENDBRANCH  11  36
BRANCH   9  40
HETATM   40  O   UNK N   1      27.587  47.437  57.079  0.00  0.00    -0.394 OA
HETATM   41  H   UNK N   1      27.097  48.018  57.716  0.00  0.00     0.210 HD
ENDBRANCH   9  40
TORSDOF 9
ENDMDL
MODEL 7
REMARK VINA RESULT:      -4.9      2.858      5.918
REMARK  9 active torsions:
REMARK  status: ('A' for Active; 'I' for Inactive)
REMARK    1  A    between atoms: C_2  and  O_3 
REMARK    2  A    between atoms: C_2  and  C_36 
REMARK    3  A    between atoms: O_3  and  C_4 
REMARK    4  A    between atoms: C_6  and  O_7 
REMARK    5  A    between atoms: C_9  and  O_10 
REMARK    6  A    between atoms: O_10  and  C_11 
REMARK    7  A    between atoms: C_18  and  O_19 
REMARK    8  A    between atoms: C_22  and  O_23 
REMARK    9  A    between atoms: O_23  and  C_24 
ROOT
HETATM    1  C   UNK N   1      30.107  43.309  62.081  0.00  0.00     0.146 C 
HETATM    2  C   UNK N   1      30.005  43.364  60.544  0.00  0.00     0.075 C 
HETATM    3  C   UNK N   1      29.414  44.776  60.302  0.00  0.00     0.095 C 
HETATM    4  C   UNK N   1      28.802  45.076  58.882  0.00  0.00     0.174 C 
HETATM    5  C   UNK N   1      29.707  44.900  57.615  0.00  0.00     0.036 C 
HETATM    6  C   UNK N   1      29.903  43.457  57.181  0.00  0.00    -0.023 C 
HETATM    7  C   UNK N   1      29.088  42.898  56.252  0.00  0.00    -0.019 C 
HETATM    8  C   UNK N   1      29.243  41.469  55.705  0.00  0.00    -0.004 C 
HETATM    9  C   UNK N   1      29.436  40.429  56.857  0.00  0.00     0.132 C 
HETATM   10  C   UNK N   1      28.246  40.355  57.845  0.00  0.00     0.070 C 
HETATM   11  C   UNK N   1      28.699  39.899  59.259  0.00  0.00     0.162 C 
HETATM   12  C   UNK N   1      29.602  40.951  59.886  0.00  0.00    -0.058 C 
HETATM   13  C   UNK N   1      29.142  42.223  60.045  0.00  0.00    -0.011 C 
HETATM   14  C   UNK N   1      31.013  40.534  60.261  0.00  0.00     0.046 C 
HETATM   15  C   UNK N   1      27.995  41.130  54.860  0.00  0.00     0.021 C 
HETATM   16  C   UNK N   1      30.478  41.439  54.777  0.00  0.00     0.021 C 
HETATM   17  C   UNK N   1      31.058  45.616  57.695  0.00  0.00     0.017 C 
HETATM   18  C   UNK N   1      28.341  44.893  61.413  0.00  0.00     0.048 C 
HETATM   19  C   UNK N   1      28.765  43.919  62.532  0.00  0.00     0.015 C 
HETATM   20  C   UNK N   1      28.750  44.539  63.932  0.00  0.00     0.012 C 
ENDROOT
BRANCH   1  21
HETATM   21  O   UNK N   1      31.174  44.093  62.500  0.00  0.00    -0.311 OA
BRANCH  21  22
HETATM   22  C   UNK N   1      32.305  43.597  63.080  0.00  0.00     0.293 C 
HETATM   23  O   UNK N   1      32.237  42.923  64.098  0.00  0.00    -0.259 OA
BRANCH  22  24
HETATM   24  C   UNK N   1      33.625  43.867  62.466  0.00  0.00     0.039 A 
HETATM   25  C   UNK N   1      33.928  43.385  61.182  0.00  0.00     0.017 A 
HETATM   26  C   UNK N   1      35.177  43.645  60.609  0.00  0.00     0.001 A 
HETATM   27  C   UNK N   1      36.130  44.388  61.311  0.00  0.00     0.000 A 
HETATM   28  C   UNK N   1      35.839  44.871  62.589  0.00  0.00     0.001 A 
HETATM   29  C   UNK N   1      34.594  44.613  63.167  0.00  0.00     0.017 A 
ENDBRANCH  22  24
ENDBRANCH  21  22
ENDBRANCH   1  21
BRANCH   3  30
HETATM   30  O   UNK N   1      30.450  45.699  60.573  0.00  0.00    -0.386 OA
HETATM   31  H   UNK N   1      30.908  45.436  61.413  0.00  0.00     0.210 HD
ENDBRANCH   3  30
BRANCH   4  32
HETATM   32  O   UNK N   1      28.295  46.369  58.910  0.00  0.00    -0.313 OA
BRANCH  32  33
HETATM   33  C   UNK N   1      27.578  46.936  57.901  0.00  0.00     0.255 C 
HETATM   34  O   UNK N   1      26.550  46.414  57.489  0.00  0.00    -0.266 OA
HETATM   35  C   UNK N   1      28.040  48.225  57.306  0.00  0.00     0.126 C 
ENDBRANCH  32  33
ENDBRANCH   4  32
BRANCH  11  36
HETATM   36  O   UNK N   1      27.611  39.696  60.087  0.00  0.00    -0.312 OA
BRANCH  36  37
HETATM   37  C   UNK N   1      27.460  38.595  60.869  0.00  0.00     0.255 C 
HETATM   38  O   UNK N   1      26.854  37.613  60.462  0.00  0.00    -0.266 OA
HETATM   39  C   UNK N   1      28.071  38.576  62.230  0.00  0.00     0.126 C 
ENDBRANCH  36  37
ENDBRANCH  11  36
BRANCH   9  40
HETATM   40  O   UNK N   1      29.677  39.147  56.330  0.00  0.00    -0.394 OA
HETATM   41  H   UNK N   1      29.657  39.222  55.341  0.00  0.00     0.210 HD
ENDBRANCH   9  40
TORSDOF 9
ENDMDL
MODEL 8
REMARK VINA RESULT:      -4.8      1.975      7.564
REMARK  9 active torsions:
REMARK  status: ('A' for Active; 'I' for Inactive)
REMARK    1  A    between atoms: C_2  and  O_3 
REMARK    2  A    between atoms: C_2  and  C_36 
REMARK    3  A    between atoms: O_3  and  C_4 
REMARK    4  A    between atoms: C_6  and  O_7 
REMARK    5  A    between atoms: C_9  and  O_10 
REMARK    6  A    between atoms: O_10  and  C_11 
REMARK    7  A    between atoms: C_18  and  O_19 
REMARK    8  A    between atoms: C_22  and  O_23 
REMARK    9  A    between atoms: O_23  and  C_24 
ROOT
HETATM    1  C   UNK N   1      27.835  41.025  57.578  0.00  0.00     0.146 C 
HETATM    2  C   UNK N   1      28.689  42.307  57.648  0.00  0.00     0.075 C 
HETATM    3  C   UNK N   1      30.078  41.757  58.060  0.00  0.00     0.095 C 
HETATM    4  C   UNK N   1      31.136  42.787  58.610  0.00  0.00     0.174 C 
HETATM    5  C   UNK N   1      31.541  44.006  57.712  0.00  0.00     0.036 C 
HETATM    6  C   UNK N   1      30.520  45.130  57.685  0.00  0.00    -0.023 C 
HETATM    7  C   UNK N   1      30.618  46.174  58.547  0.00  0.00    -0.019 C 
HETATM    8  C   UNK N   1      29.671  47.385  58.557  0.00  0.00    -0.004 C 
HETATM    9  C   UNK N   1      28.171  46.945  58.510  0.00  0.00     0.132 C 
HETATM   10  C   UNK N   1      27.729  46.080  59.716  0.00  0.00     0.070 C 
HETATM   11  C   UNK N   1      26.561  45.128  59.343  0.00  0.00     0.162 C 
HETATM   12  C   UNK N   1      27.028  44.094  58.329  0.00  0.00    -0.058 C 
HETATM   13  C   UNK N   1      28.076  43.280  58.635  0.00  0.00    -0.011 C 
HETATM   14  C   UNK N   1      26.323  44.058  56.986  0.00  0.00     0.046 C 
HETATM   15  C   UNK N   1      29.960  48.222  59.824  0.00  0.00     0.021 C 
HETATM   16  C   UNK N   1      29.989  48.256  57.321  0.00  0.00     0.021 C 
HETATM   17  C   UNK N   1      31.957  43.635  56.286  0.00  0.00     0.017 C 
HETATM   18  C   UNK N   1      29.722  40.693  59.129  0.00  0.00     0.048 C 
HETATM   19  C   UNK N   1      28.270  40.259  58.844  0.00  0.00     0.015 C 
HETATM   20  C   UNK N   1      28.073  38.741  58.805  0.00  0.00     0.012 C 
ENDROOT
BRANCH   1  21
HETATM   21  O   UNK N   1      28.165  40.315  56.431  0.00  0.00    -0.311 OA
BRANCH  21  22
HETATM   22  C   UNK N   1      27.406  40.301  55.297  0.00  0.00     0.293 C 
HETATM   23  O   UNK N   1      26.347  39.690  55.266  0.00  0.00    -0.259 OA
BRANCH  22  24
HETATM   24  C   UNK N   1      27.862  41.039  54.098  0.00  0.00     0.039 A 
HETATM   25  C   UNK N   1      26.959  41.358  53.070  0.00  0.00     0.017 A 
HETATM   26  C   UNK N   1      27.397  42.057  51.939  0.00  0.00     0.001 A 
HETATM   27  C   UNK N   1      28.736  42.441  51.829  0.00  0.00     0.000 A 
HETATM   28  C   UNK N   1      29.641  42.127  52.844  0.00  0.00     0.001 A 
HETATM   29  C   UNK N   1      29.210  41.429  53.974  0.00  0.00     0.017 A 
ENDBRANCH  22  24
ENDBRANCH  21  22
ENDBRANCH   1  21
BRANCH   3  30
HETATM   30  O   UNK N   1      30.606  41.100  56.925  0.00  0.00    -0.386 OA
HETATM   31  H   UNK N   1      29.906  41.051  56.223  0.00  0.00     0.210 HD
ENDBRANCH   3  30
BRANCH   4  32
HETATM   32  O   UNK N   1      32.275  42.071  58.957  0.00  0.00    -0.313 OA
BRANCH  32  33
HETATM   33  C   UNK N   1      33.448  42.638  59.354  0.00  0.00     0.255 C 
HETATM   34  O   UNK N   1      34.393  42.735  58.582  0.00  0.00    -0.266 OA
HETATM   35  C   UNK N   1      33.574  43.170  60.743  0.00  0.00     0.126 C 
ENDBRANCH  32  33
ENDBRANCH   4  32
BRANCH  11  36
HETATM   36  O   UNK N   1      26.081  44.471  60.460  0.00  0.00    -0.312 OA
BRANCH  36  37
HETATM   37  C   UNK N   1      25.051  43.585  60.424  0.00  0.00     0.255 C 
HETATM   38  O   UNK N   1      23.974  43.893  59.931  0.00  0.00    -0.266 OA
HETATM   39  C   UNK N   1      25.251  42.209  60.965  0.00  0.00     0.126 C 
ENDBRANCH  36  37
ENDBRANCH  11  36
BRANCH   9  40
HETATM   40  O   UNK N   1      27.330  48.070  58.417  0.00  0.00    -0.394 OA
HETATM   41  H   UNK N   1      27.307  48.348  57.465  0.00  0.00     0.210 HD
ENDBRANCH   9  40
TORSDOF 9
ENDMDL
MODEL 9
REMARK VINA RESULT:      -4.7      2.500      6.181
REMARK  9 active torsions:
REMARK  status: ('A' for Active; 'I' for Inactive)
REMARK    1  A    between atoms: C_2  and  O_3 
REMARK    2  A    between atoms: C_2  and  C_36 
REMARK    3  A    between atoms: O_3  and  C_4 
REMARK    4  A    between atoms: C_6  and  O_7 
REMARK    5  A    between atoms: C_9  and  O_10 
REMARK    6  A    between atoms: O_10  and  C_11 
REMARK    7  A    between atoms: C_18  and  O_19 
REMARK    8  A    between atoms: C_22  and  O_23 
REMARK    9  A    between atoms: O_23  and  C_24 
ROOT
HETATM    1  C   UNK N   1      28.755  44.977  58.119  0.00  0.00     0.146 C 
HETATM    2  C   UNK N   1      28.960  43.475  58.401  0.00  0.00     0.075 C 
HETATM    3  C   UNK N   1      30.247  43.474  59.265  0.00  0.00     0.095 C 
HETATM    4  C   UNK N   1      31.005  42.104  59.439  0.00  0.00     0.174 C 
HETATM    5  C   UNK N   1      30.231  40.881  60.039  0.00  0.00     0.036 C 
HETATM    6  C   UNK N   1      29.295  40.192  59.061  0.00  0.00    -0.023 C 
HETATM    7  C   UNK N   1      29.717  39.127  58.333  0.00  0.00    -0.019 C 
HETATM    8  C   UNK N   1      28.830  38.328  57.365  0.00  0.00    -0.004 C 
HETATM    9  C   UNK N   1      28.026  39.269  56.409  0.00  0.00     0.132 C 
HETATM   10  C   UNK N   1      28.916  40.155  55.501  0.00  0.00     0.070 C 
HETATM   11  C   UNK N   1      28.204  41.479  55.114  0.00  0.00     0.162 C 
HETATM   12  C   UNK N   1      27.998  42.346  56.347  0.00  0.00    -0.058 C 
HETATM   13  C   UNK N   1      29.076  42.718  57.093  0.00  0.00    -0.011 C 
HETATM   14  C   UNK N   1      26.574  42.715  56.718  0.00  0.00     0.046 C 
HETATM   15  C   UNK N   1      29.729  37.363  56.560  0.00  0.00     0.021 C 
HETATM   16  C   UNK N   1      27.842  37.483  58.201  0.00  0.00     0.021 C 
HETATM   17  C   UNK N   1      29.500  41.174  61.353  0.00  0.00     0.017 C 
HETATM   18  C   UNK N   1      31.138  44.523  58.554  0.00  0.00     0.048 C 
HETATM   19  C   UNK N   1      30.181  45.457  57.786  0.00  0.00     0.015 C 
HETATM   20  C   UNK N   1      30.454  46.947  58.013  0.00  0.00     0.012 C 
ENDROOT
BRANCH   1  21
HETATM   21  O   UNK N   1      28.278  45.598  59.266  0.00  0.00    -0.311 OA
BRANCH  21  22
HETATM   22  C   UNK N   1      26.957  45.674  59.600  0.00  0.00     0.293 C 
HETATM   23  O   UNK N   1      26.193  46.381  58.959  0.00  0.00    -0.259 OA
BRANCH  22  24
HETATM   24  C   UNK N   1      26.441  44.887  60.743  0.00  0.00     0.039 A 
HETATM   25  C   UNK N   1      26.367  43.486  60.670  0.00  0.00     0.017 A 
HETATM   26  C   UNK N   1      25.880  42.748  61.754  0.00  0.00     0.001 A 
HETATM   27  C   UNK N   1      25.464  43.403  62.916  0.00  0.00     0.000 A 
HETATM   28  C   UNK N   1      25.531  44.795  62.998  0.00  0.00     0.001 A 
HETATM   29  C   UNK N   1      26.017  45.537  61.919  0.00  0.00     0.017 A 
ENDBRANCH  22  24
ENDBRANCH  21  22
ENDBRANCH   1  21
BRANCH   3  30
HETATM   30  O   UNK N   1      29.882  43.975  60.535  0.00  0.00    -0.386 OA
HETATM   31  H   UNK N   1      30.494  44.717  60.779  0.00  0.00     0.210 HD
ENDBRANCH   3  30
BRANCH   4  32
HETATM   32  O   UNK N   1      32.141  42.349  60.202  0.00  0.00    -0.313 OA
BRANCH  32  33
HETATM   33  C   UNK N   1      33.399  41.959  59.856  0.00  0.00     0.255 C 
HETATM   34  O   UNK N   1      33.757  40.797  59.991  0.00  0.00    -0.266 OA
HETATM   35  C   UNK N   1      34.345  42.960  59.280  0.00  0.00     0.126 C 
ENDBRANCH  32  33
ENDBRANCH   4  32
BRANCH  11  36
HETATM   36  O   UNK N   1      28.946  42.189  54.189  0.00  0.00    -0.312 OA
BRANCH  36  37
HETATM   37  C   UNK N   1      28.453  42.605  52.993  0.00  0.00     0.255 C 
HETATM   38  O   UNK N   1      27.428  43.269  52.932  0.00  0.00    -0.266 OA
HETATM   39  C   UNK N   1      29.196  42.273  51.741  0.00  0.00     0.126 C 
ENDBRANCH  36  37
ENDBRANCH  11  36
BRANCH   9  40
HETATM   40  O   UNK N   1      27.148  38.521  55.603  0.00  0.00    -0.394 OA
HETATM   41  H   UNK N   1      26.392  39.114  55.356  0.00  0.00     0.210 HD
ENDBRANCH   9  40
TORSDOF 9
ENDMDL
