MODEL 1
REMARK VINA RESULT:      -5.5      0.000      0.000
REMARK  8 active torsions:
REMARK  status: ('A' for Active; 'I' for Inactive)
REMARK    1  A    between atoms: C_6  and  O_7 
REMARK    2  A    between atoms: C_10  and  O_11 
REMARK    3  A    between atoms: O_11  and  C_12 
REMARK    4  A    between atoms: C_16  and  O_17 
REMARK    5  A    between atoms: O_17  and  C_18 
REMARK    6  A    between atoms: C_25  and  O_26 
REMARK    7  A    between atoms: O_26  and  C_27 
REMARK    8  A    between atoms: C_27  and  C_29 
ROOT
HETATM    1  O   UNK N   1      27.652  39.039  53.980  0.00  0.00    -0.294 OA
HETATM    2  C   UNK N   1      28.020  39.155  55.137  0.00  0.00     0.168 C 
HETATM    3  C   UNK N   1      27.390  40.060  56.159  0.00  0.00     0.131 C 
HETATM    4  O   UNK N   1      27.857  39.505  57.380  0.00  0.00    -0.363 OA
HETATM    5  C   UNK N   1      29.152  39.012  57.090  0.00  0.00     0.163 C 
HETATM    6  C   UNK N   1      29.826  38.191  58.233  0.00  0.00     0.158 C 
HETATM    7  C   UNK N   1      30.178  38.896  59.626  0.00  0.00     0.008 C 
HETATM    8  C   UNK N   1      30.694  40.386  59.427  0.00  0.00     0.144 C 
HETATM    9  C   UNK N   1      29.517  41.381  59.268  0.00  0.00     0.069 C 
HETATM   10  C   UNK N   1      29.739  42.633  58.413  0.00  0.00     0.171 C 
HETATM   11  C   UNK N   1      28.318  43.224  58.124  0.00  0.00     0.111 A 
HETATM   12  O   UNK N   1      28.043  43.782  56.876  0.00  0.00    -0.366 OA
HETATM   13  C   UNK N   1      27.379  42.538  57.157  0.00  0.00     0.169 A 
HETATM   14  C   UNK N   1      27.707  41.587  55.958  0.00  0.00     0.090 C 
HETATM   15  C   UNK N   1      26.742  41.957  54.798  0.00  0.00     0.146 C 
HETATM   16  C   UNK N   1      25.464  41.113  55.081  0.00  0.00     0.015 C 
HETATM   17  C   UNK N   1      25.870  40.015  56.092  0.00  0.00     0.053 C 
HETATM   18  C   UNK N   1      24.756  40.589  53.825  0.00  0.00     0.012 C 
HETATM   19  C   UNK N   1      27.627  43.970  59.270  0.00  0.00     0.051 C 
HETATM   20  C   UNK N   1      28.981  38.839  60.614  0.00  0.00     0.020 C 
HETATM   21  C   UNK N   1      31.318  38.058  60.266  0.00  0.00     0.020 C 
HETATM   22  C   UNK N   1      29.018  38.268  55.754  0.00  0.00     0.086 C 
HETATM   23  C   UNK N   1      30.336  38.177  54.973  0.00  0.00     0.021 C 
ENDROOT
BRANCH  15  24
HETATM   24  O   UNK N   1      27.340  41.627  53.589  0.00  0.00    -0.311 OA
BRANCH  24  25
HETATM   25  C   UNK N   1      27.629  42.577  52.652  0.00  0.00     0.293 C 
HETATM   26  O   UNK N   1      28.781  42.964  52.509  0.00  0.00    -0.259 OA
BRANCH  25  27
HETATM   27  C   UNK N   1      26.572  43.097  51.754  0.00  0.00     0.039 A 
HETATM   28  C   UNK N   1      25.691  44.103  52.182  0.00  0.00     0.017 A 
HETATM   29  C   UNK N   1      24.664  44.544  51.341  0.00  0.00     0.001 A 
HETATM   30  C   UNK N   1      24.513  43.989  50.068  0.00  0.00     0.000 A 
HETATM   31  C   UNK N   1      25.393  43.000  49.628  0.00  0.00     0.001 A 
HETATM   32  C   UNK N   1      26.420  42.555  50.463  0.00  0.00     0.017 A 
ENDBRANCH  25  27
ENDBRANCH  24  25
ENDBRANCH  15  24
BRANCH  10  33
HETATM   33  O   UNK N   1      30.427  42.294  57.262  0.00  0.00    -0.313 OA
BRANCH  33  34
HETATM   34  C   UNK N   1      31.456  43.012  56.742  0.00  0.00     0.255 C 
HETATM   35  O   UNK N   1      32.022  42.647  55.721  0.00  0.00    -0.266 OA
HETATM   36  C   UNK N   1      31.866  44.285  57.409  0.00  0.00     0.126 C 
ENDBRANCH  33  34
ENDBRANCH  10  33
BRANCH   6  37
HETATM   37  O   UNK N   1      29.093  37.008  58.447  0.00  0.00    -0.392 OA
HETATM   38  H   UNK N   1      29.083  36.500  57.595  0.00  0.00     0.210 HD
ENDBRANCH   6  37
BRANCH   8  39
HETATM   39  O   UNK N   1      31.450  40.817  60.510  0.00  0.00    -0.315 OA
BRANCH  39  40
HETATM   40  C   UNK N   1      32.646  41.460  60.421  0.00  0.00     0.255 C 
HETATM   41  O   UNK N   1      33.650  40.877  60.035  0.00  0.00    -0.266 OA
HETATM   42  C   UNK N   1      32.732  42.898  60.816  0.00  0.00     0.126 C 
ENDBRANCH  39  40
ENDBRANCH   8  39
TORSDOF 8
ENDMDL
MODEL 2
REMARK VINA RESULT:      -5.3      2.812      7.930
REMARK  8 active torsions:
REMARK  status: ('A' for Active; 'I' for Inactive)
REMARK    1  A    between atoms: C_6  and  O_7 
REMARK    2  A    between atoms: C_10  and  O_11 
REMARK    3  A    between atoms: O_11  and  C_12 
REMARK    4  A    between atoms: C_16  and  O_17 
REMARK    5  A    between atoms: O_17  and  C_18 
REMARK    6  A    between atoms: C_25  and  O_26 
REMARK    7  A    between atoms: O_26  and  C_27 
REMARK    8  A    between atoms: C_27  and  C_29 
ROOT
HETATM    1  O   UNK N   1      30.733  45.022  59.338  0.00  0.00    -0.294 OA
HETATM    2  C   UNK N   1      30.168  44.111  58.757  0.00  0.00     0.168 C 
HETATM    3  C   UNK N   1      28.925  43.416  59.238  0.00  0.00     0.131 C 
HETATM    4  O   UNK N   1      28.443  42.804  58.050  0.00  0.00    -0.363 OA
HETATM    5  C   UNK N   1      29.604  42.462  57.315  0.00  0.00     0.163 C 
HETATM    6  C   UNK N   1      29.348  41.922  55.874  0.00  0.00     0.158 C 
HETATM    7  C   UNK N   1      28.552  40.549  55.662  0.00  0.00     0.008 C 
HETATM    8  C   UNK N   1      28.926  39.468  56.766  0.00  0.00     0.144 C 
HETATM    9  C   UNK N   1      28.120  39.684  58.072  0.00  0.00     0.069 C 
HETATM   10  C   UNK N   1      28.768  39.273  59.398  0.00  0.00     0.171 C 
HETATM   11  C   UNK N   1      27.918  39.944  60.528  0.00  0.00     0.111 A 
HETATM   12  O   UNK N   1      28.553  40.452  61.660  0.00  0.00    -0.366 OA
HETATM   13  C   UNK N   1      27.997  41.435  60.770  0.00  0.00     0.169 A 
HETATM   14  C   UNK N   1      29.155  42.436  60.445  0.00  0.00     0.090 C 
HETATM   15  C   UNK N   1      29.259  43.425  61.638  0.00  0.00     0.146 C 
HETATM   16  C   UNK N   1      28.233  44.546  61.294  0.00  0.00     0.015 C 
HETATM   17  C   UNK N   1      27.905  44.402  59.789  0.00  0.00     0.053 C 
HETATM   18  C   UNK N   1      28.664  45.956  61.717  0.00  0.00     0.012 C 
HETATM   19  C   UNK N   1      26.558  39.313  60.846  0.00  0.00     0.051 C 
HETATM   20  C   UNK N   1      27.018  40.781  55.592  0.00  0.00     0.020 C 
HETATM   21  C   UNK N   1      28.981  40.005  54.271  0.00  0.00     0.020 C 
HETATM   22  C   UNK N   1      30.516  43.695  57.389  0.00  0.00     0.086 C 
HETATM   23  C   UNK N   1      32.002  43.366  57.199  0.00  0.00     0.021 C 
ENDROOT
BRANCH  15  24
HETATM   24  O   UNK N   1      30.560  43.903  61.718  0.00  0.00    -0.311 OA
BRANCH  24  25
HETATM   25  C   UNK N   1      31.564  43.153  62.260  0.00  0.00     0.293 C 
HETATM   26  O   UNK N   1      31.295  42.197  62.973  0.00  0.00    -0.259 OA
BRANCH  25  27
HETATM   27  C   UNK N   1      32.981  43.444  61.938  0.00  0.00     0.039 A 
HETATM   28  C   UNK N   1      33.800  44.138  62.843  0.00  0.00     0.017 A 
HETATM   29  C   UNK N   1      35.119  44.452  62.500  0.00  0.00     0.001 A 
HETATM   30  C   UNK N   1      35.630  44.072  61.256  0.00  0.00     0.000 A 
HETATM   31  C   UNK N   1      34.828  43.368  60.357  0.00  0.00     0.001 A 
HETATM   32  C   UNK N   1      33.511  43.052  60.693  0.00  0.00     0.017 A 
ENDBRANCH  25  27
ENDBRANCH  24  25
ENDBRANCH  15  24
BRANCH  10  33
HETATM   33  O   UNK N   1      30.092  39.669  59.411  0.00  0.00    -0.313 OA
BRANCH  33  34
HETATM   34  C   UNK N   1      31.093  38.988  60.026  0.00  0.00     0.255 C 
HETATM   35  O   UNK N   1      30.976  37.798  60.283  0.00  0.00    -0.266 OA
HETATM   36  C   UNK N   1      32.368  39.699  60.350  0.00  0.00     0.126 C 
ENDBRANCH  33  34
ENDBRANCH  10  33
BRANCH   6  37
HETATM   37  O   UNK N   1      28.784  42.947  55.090  0.00  0.00    -0.392 OA
HETATM   38  H   UNK N   1      28.695  42.605  54.163  0.00  0.00     0.210 HD
ENDBRANCH   6  37
BRANCH   8  39
HETATM   39  O   UNK N   1      28.658  38.176  56.331  0.00  0.00    -0.315 OA
BRANCH  39  40
HETATM   40  C   UNK N   1      29.507  37.119  56.454  0.00  0.00     0.255 C 
HETATM   41  O   UNK N   1      29.599  36.502  57.507  0.00  0.00    -0.266 OA
HETATM   42  C   UNK N   1      30.347  36.718  55.287  0.00  0.00     0.126 C 
ENDBRANCH  39  40
ENDBRANCH   8  39
TORSDOF 8
ENDMDL
MODEL 3
REMARK VINA RESULT:      -5.2      2.456      5.329
REMARK  8 active torsions:
REMARK  status: ('A' for Active; 'I' for Inactive)
REMARK    1  A    between atoms: C_6  and  O_7 
REMARK    2  A    between atoms: C_10  and  O_11 
REMARK    3  A    between atoms: O_11  and  C_12 
REMARK    4  A    between atoms: C_16  and  O_17 
REMARK    5  A    between atoms: O_17  and  C_18 
REMARK    6  A    between atoms: C_25  and  O_26 
REMARK    7  A    between atoms: O_26  and  C_27 
REMARK    8  A    between atoms: C_27  and  C_29 
ROOT
HETATM    1  O   UNK N   1      26.621  40.172  57.202  0.00  0.00    -0.294 OA
HETATM    2  C   UNK N   1      27.022  41.005  57.997  0.00  0.00     0.168 C 
HETATM    3  C   UNK N   1      27.620  42.334  57.629  0.00  0.00     0.131 C 
HETATM    4  O   UNK N   1      27.490  43.067  58.839  0.00  0.00    -0.363 OA
HETATM    5  C   UNK N   1      27.648  42.109  59.870  0.00  0.00     0.163 C 
HETATM    6  C   UNK N   1      27.377  42.631  61.315  0.00  0.00     0.158 C 
HETATM    7  C   UNK N   1      28.309  43.770  61.944  0.00  0.00     0.008 C 
HETATM    8  C   UNK N   1      29.833  43.587  61.532  0.00  0.00     0.144 C 
HETATM    9  C   UNK N   1      30.122  44.183  60.131  0.00  0.00     0.069 C 
HETATM   10  C   UNK N   1      31.228  43.542  59.287  0.00  0.00     0.171 C 
HETATM   11  C   UNK N   1      31.033  44.079  57.829  0.00  0.00     0.111 A 
HETATM   12  O   UNK N   1      31.254  43.231  56.745  0.00  0.00    -0.366 OA
HETATM   13  C   UNK N   1      29.882  43.595  56.975  0.00  0.00     0.169 A 
HETATM   14  C   UNK N   1      29.081  42.253  57.055  0.00  0.00     0.090 C 
HETATM   15  C   UNK N   1      28.819  41.785  55.596  0.00  0.00     0.146 C 
HETATM   16  C   UNK N   1      27.502  42.514  55.194  0.00  0.00     0.015 C 
HETATM   17  C   UNK N   1      26.847  43.008  56.505  0.00  0.00     0.053 C 
HETATM   18  C   UNK N   1      26.573  41.696  54.289  0.00  0.00     0.012 C 
HETATM   19  C   UNK N   1      31.476  45.519  57.552  0.00  0.00     0.051 C 
HETATM   20  C   UNK N   1      27.794  45.192  61.589  0.00  0.00     0.020 C 
HETATM   21  C   UNK N   1      28.192  43.630  63.486  0.00  0.00     0.020 C 
HETATM   22  C   UNK N   1      26.792  40.907  59.447  0.00  0.00     0.086 C 
HETATM   23  C   UNK N   1      27.258  39.581  60.062  0.00  0.00     0.021 C 
ENDROOT
BRANCH  15  24
HETATM   24  O   UNK N   1      28.686  40.403  55.581  0.00  0.00    -0.311 OA
BRANCH  24  25
HETATM   25  C   UNK N   1      29.723  39.590  55.223  0.00  0.00     0.293 C 
HETATM   26  O   UNK N   1      30.678  40.051  54.614  0.00  0.00    -0.259 OA
BRANCH  25  27
HETATM   27  C   UNK N   1      29.737  38.164  55.626  0.00  0.00     0.039 A 
HETATM   28  C   UNK N   1      29.189  37.753  56.851  0.00  0.00     0.017 A 
HETATM   29  C   UNK N   1      29.260  36.412  57.239  0.00  0.00     0.001 A 
HETATM   30  C   UNK N   1      29.872  35.471  56.406  0.00  0.00     0.000 A 
HETATM   31  C   UNK N   1      30.406  35.868  55.179  0.00  0.00     0.001 A 
HETATM   32  C   UNK N   1      30.339  37.205  54.786  0.00  0.00     0.017 A 
ENDBRANCH  25  27
ENDBRANCH  24  25
ENDBRANCH  15  24
BRANCH  10  33
HETATM   33  O   UNK N   1      31.137  42.164  59.371  0.00  0.00    -0.313 OA
BRANCH  33  34
HETATM   34  C   UNK N   1      32.065  41.367  59.961  0.00  0.00     0.255 C 
HETATM   35  O   UNK N   1      31.766  40.254  60.371  0.00  0.00    -0.266 OA
HETATM   36  C   UNK N   1      33.476  41.848  60.069  0.00  0.00     0.126 C 
ENDBRANCH  33  34
ENDBRANCH  10  33
BRANCH   6  37
HETATM   37  O   UNK N   1      26.018  42.981  61.433  0.00  0.00    -0.392 OA
HETATM   38  H   UNK N   1      25.478  42.199  61.150  0.00  0.00     0.210 HD
ENDBRANCH   6  37
BRANCH   8  39
HETATM   39  O   UNK N   1      30.687  44.219  62.428  0.00  0.00    -0.315 OA
BRANCH  39  40
HETATM   40  C   UNK N   1      31.829  43.678  62.934  0.00  0.00     0.255 C 
HETATM   41  O   UNK N   1      31.820  42.586  63.484  0.00  0.00    -0.266 OA
HETATM   42  C   UNK N   1      33.108  44.441  62.824  0.00  0.00     0.126 C 
ENDBRANCH  39  40
ENDBRANCH   8  39
TORSDOF 8
ENDMDL
MODEL 4
REMARK VINA RESULT:      -5.1      3.012      6.906
REMARK  8 active torsions:
REMARK  status: ('A' for Active; 'I' for Inactive)
REMARK    1  A    between atoms: C_6  and  O_7 
REMARK    2  A    between atoms: C_10  and  O_11 
REMARK    3  A    between atoms: O_11  and  C_12 
REMARK    4  A    between atoms: C_16  and  O_17 
REMARK    5  A    between atoms: O_17  and  C_18 
REMARK    6  A    between atoms: C_25  and  O_26 
REMARK    7  A    between atoms: O_26  and  C_27 
REMARK    8  A    between atoms: C_27  and  C_29 
ROOT
HETATM    1  O   UNK N   1      30.599  42.118  62.048  0.00  0.00    -0.294 OA
HETATM    2  C   UNK N   1      30.311  41.371  61.128  0.00  0.00     0.168 C 
HETATM    3  C   UNK N   1      31.030  41.305  59.809  0.00  0.00     0.131 C 
HETATM    4  O   UNK N   1      30.630  40.035  59.312  0.00  0.00    -0.363 OA
HETATM    5  C   UNK N   1      29.306  39.856  59.781  0.00  0.00     0.163 C 
HETATM    6  C   UNK N   1      28.687  38.449  59.515  0.00  0.00     0.158 C 
HETATM    7  C   UNK N   1      28.446  37.951  58.012  0.00  0.00     0.008 C 
HETATM    8  C   UNK N   1      27.957  39.130  57.065  0.00  0.00     0.144 C 
HETATM    9  C   UNK N   1      29.147  39.978  56.549  0.00  0.00     0.069 C 
HETATM   10  C   UNK N   1      28.901  41.461  56.251  0.00  0.00     0.171 C 
HETATM   11  C   UNK N   1      30.315  42.123  56.128  0.00  0.00     0.111 A 
HETATM   12  O   UNK N   1      30.522  43.407  56.629  0.00  0.00    -0.366 OA
HETATM   13  C   UNK N   1      31.170  42.348  57.354  0.00  0.00     0.169 A 
HETATM   14  C   UNK N   1      30.741  42.516  58.850  0.00  0.00     0.090 C 
HETATM   15  C   UNK N   1      31.636  43.626  59.466  0.00  0.00     0.146 C 
HETATM   16  C   UNK N   1      32.908  42.865  59.947  0.00  0.00     0.015 C 
HETATM   17  C   UNK N   1      32.540  41.363  59.987  0.00  0.00     0.053 C 
HETATM   18  C   UNK N   1      33.518  43.403  61.247  0.00  0.00     0.012 C 
HETATM   19  C   UNK N   1      31.099  41.858  54.838  0.00  0.00     0.051 C 
HETATM   20  C   UNK N   1      29.703  37.246  57.435  0.00  0.00     0.020 C 
HETATM   21  C   UNK N   1      27.328  36.875  58.082  0.00  0.00     0.020 C 
HETATM   22  C   UNK N   1      29.333  40.280  61.257  0.00  0.00     0.086 C 
HETATM   23  C   UNK N   1      27.964  40.731  61.786  0.00  0.00     0.021 C 
ENDROOT
BRANCH  15  24
HETATM   24  O   UNK N   1      30.952  44.231  60.512  0.00  0.00    -0.311 OA
BRANCH  24  25
HETATM   25  C   UNK N   1      29.809  44.947  60.299  0.00  0.00     0.293 C 
HETATM   26  O   UNK N   1      28.740  44.529  60.720  0.00  0.00    -0.259 OA
BRANCH  25  27
HETATM   27  C   UNK N   1      29.859  46.262  59.619  0.00  0.00     0.039 A 
HETATM   28  C   UNK N   1      29.465  47.435  60.283  0.00  0.00     0.017 A 
HETATM   29  C   UNK N   1      29.467  48.660  59.610  0.00  0.00     0.001 A 
HETATM   30  C   UNK N   1      29.867  48.725  58.272  0.00  0.00     0.000 A 
HETATM   31  C   UNK N   1      30.275  47.567  57.608  0.00  0.00     0.001 A 
HETATM   32  C   UNK N   1      30.275  46.341  58.275  0.00  0.00     0.017 A 
ENDBRANCH  25  27
ENDBRANCH  24  25
ENDBRANCH  15  24
BRANCH  10  33
HETATM   33  O   UNK N   1      28.131  42.017  57.255  0.00  0.00    -0.313 OA
BRANCH  33  34
HETATM   34  C   UNK N   1      27.101  42.877  57.048  0.00  0.00     0.255 C 
HETATM   35  O   UNK N   1      26.104  42.525  56.433  0.00  0.00    -0.266 OA
HETATM   36  C   UNK N   1      27.178  44.257  57.619  0.00  0.00     0.126 C 
ENDBRANCH  33  34
ENDBRANCH  10  33
BRANCH   6  37
HETATM   37  O   UNK N   1      29.402  37.483  60.248  0.00  0.00    -0.392 OA
HETATM   38  H   UNK N   1      29.875  37.951  60.984  0.00  0.00     0.210 HD
ENDBRANCH   6  37
BRANCH   8  39
HETATM   39  O   UNK N   1      27.285  38.647  55.949  0.00  0.00    -0.315 OA
BRANCH  39  40
HETATM   40  C   UNK N   1      26.176  39.213  55.399  0.00  0.00     0.255 C 
HETATM   41  O   UNK N   1      26.240  39.833  54.346  0.00  0.00    -0.266 OA
HETATM   42  C   UNK N   1      24.866  39.085  56.103  0.00  0.00     0.126 C 
ENDBRANCH  39  40
ENDBRANCH   8  39
TORSDOF 8
ENDMDL
MODEL 5
REMARK VINA RESULT:      -5.1      5.195      7.334
REMARK  8 active torsions:
REMARK  status: ('A' for Active; 'I' for Inactive)
REMARK    1  A    between atoms: C_6  and  O_7 
REMARK    2  A    between atoms: C_10  and  O_11 
REMARK    3  A    between atoms: O_11  and  C_12 
REMARK    4  A    between atoms: C_16  and  O_17 
REMARK    5  A    between atoms: O_17  and  C_18 
REMARK    6  A    between atoms: C_25  and  O_26 
REMARK    7  A    between atoms: O_26  and  C_27 
REMARK    8  A    between atoms: C_27  and  C_29 
ROOT
HETATM    1  O   UNK N   1      27.824  45.873  58.091  0.00  0.00    -0.294 OA
HETATM    2  C   UNK N   1      28.712  45.204  58.594  0.00  0.00     0.168 C 
HETATM    3  C   UNK N   1      28.538  44.273  59.762  0.00  0.00     0.131 C 
HETATM    4  O   UNK N   1      29.685  43.441  59.656  0.00  0.00    -0.363 OA
HETATM    5  C   UNK N   1      30.703  44.281  59.142  0.00  0.00     0.163 C 
HETATM    6  C   UNK N   1      32.036  43.562  58.767  0.00  0.00     0.158 C 
HETATM    7  C   UNK N   1      32.908  42.847  59.904  0.00  0.00     0.008 C 
HETATM    8  C   UNK N   1      32.906  43.672  61.263  0.00  0.00     0.144 C 
HETATM    9  C   UNK N   1      31.641  43.377  62.108  0.00  0.00     0.069 C 
HETATM   10  C   UNK N   1      31.104  44.488  63.015  0.00  0.00     0.171 C 
HETATM   11  C   UNK N   1      29.657  44.056  63.427  0.00  0.00     0.111 A 
HETATM   12  O   UNK N   1      28.653  45.017  63.533  0.00  0.00    -0.366 OA
HETATM   13  C   UNK N   1      28.522  44.108  62.428  0.00  0.00     0.169 A 
HETATM   14  C   UNK N   1      28.364  44.994  61.148  0.00  0.00     0.090 C 
HETATM   15  C   UNK N   1      26.880  45.448  61.082  0.00  0.00     0.146 C 
HETATM   16  C   UNK N   1      26.160  44.288  60.332  0.00  0.00     0.015 C 
HETATM   17  C   UNK N   1      27.263  43.451  59.642  0.00  0.00     0.053 C 
HETATM   18  C   UNK N   1      25.029  44.738  59.399  0.00  0.00     0.012 C 
HETATM   19  C   UNK N   1      29.532  42.953  64.483  0.00  0.00     0.051 C 
HETATM   20  C   UNK N   1      32.457  41.379  60.132  0.00  0.00     0.020 C 
HETATM   21  C   UNK N   1      34.363  42.784  59.364  0.00  0.00     0.020 C 
HETATM   22  C   UNK N   1      30.048  45.065  57.996  0.00  0.00     0.086 C 
HETATM   23  C   UNK N   1      30.740  46.403  57.700  0.00  0.00     0.021 C 
ENDROOT
BRANCH  15  24
HETATM   24  O   UNK N   1      26.805  46.652  60.393  0.00  0.00    -0.311 OA
BRANCH  24  25
HETATM   25  C   UNK N   1      27.146  47.835  60.984  0.00  0.00     0.293 C 
HETATM   26  O   UNK N   1      27.017  47.974  62.192  0.00  0.00    -0.259 OA
BRANCH  25  27
HETATM   27  C   UNK N   1      27.739  48.933  60.185  0.00  0.00     0.039 A 
HETATM   28  C   UNK N   1      26.970  50.043  59.800  0.00  0.00     0.017 A 
HETATM   29  C   UNK N   1      27.530  51.044  59.001  0.00  0.00     0.001 A 
HETATM   30  C   UNK N   1      28.860  50.948  58.585  0.00  0.00     0.000 A 
HETATM   31  C   UNK N   1      29.637  49.856  58.975  0.00  0.00     0.001 A 
HETATM   32  C   UNK N   1      29.084  48.853  59.773  0.00  0.00     0.017 A 
ENDBRANCH  25  27
ENDBRANCH  24  25
ENDBRANCH  15  24
BRANCH  10  33
HETATM   33  O   UNK N   1      31.136  45.696  62.342  0.00  0.00    -0.313 OA
BRANCH  33  34
HETATM   34  C   UNK N   1      31.490  46.880  62.904  0.00  0.00     0.255 C 
HETATM   35  O   UNK N   1      32.652  47.106  63.212  0.00  0.00    -0.266 OA
HETATM   36  C   UNK N   1      30.446  47.932  63.106  0.00  0.00     0.126 C 
ENDBRANCH  33  34
ENDBRANCH  10  33
BRANCH   6  37
HETATM   37  O   UNK N   1      31.800  42.681  57.696  0.00  0.00    -0.392 OA
HETATM   38  H   UNK N   1      32.508  42.833  57.017  0.00  0.00     0.210 HD
ENDBRANCH   6  37
BRANCH   8  39
HETATM   39  O   UNK N   1      34.006  43.361  62.053  0.00  0.00    -0.315 OA
BRANCH  39  40
HETATM   40  C   UNK N   1      34.794  44.271  62.688  0.00  0.00     0.255 C 
HETATM   41  O   UNK N   1      34.518  44.672  63.810  0.00  0.00    -0.266 OA
HETATM   42  C   UNK N   1      36.007  44.797  61.993  0.00  0.00     0.126 C 
ENDBRANCH  39  40
ENDBRANCH   8  39
TORSDOF 8
ENDMDL
MODEL 6
REMARK VINA RESULT:      -5.0      2.253      4.820
REMARK  8 active torsions:
REMARK  status: ('A' for Active; 'I' for Inactive)
REMARK    1  A    between atoms: C_6  and  O_7 
REMARK    2  A    between atoms: C_10  and  O_11 
REMARK    3  A    between atoms: O_11  and  C_12 
REMARK    4  A    between atoms: C_16  and  O_17 
REMARK    5  A    between atoms: O_17  and  C_18 
REMARK    6  A    between atoms: C_25  and  O_26 
REMARK    7  A    between atoms: O_26  and  C_27 
REMARK    8  A    between atoms: C_27  and  C_29 
ROOT
HETATM    1  O   UNK N   1      29.158  39.308  54.611  0.00  0.00    -0.294 OA
HETATM    2  C   UNK N   1      29.366  40.213  55.401  0.00  0.00     0.168 C 
HETATM    3  C   UNK N   1      29.092  40.151  56.879  0.00  0.00     0.131 C 
HETATM    4  O   UNK N   1      29.896  41.210  57.378  0.00  0.00    -0.363 OA
HETATM    5  C   UNK N   1      29.881  42.196  56.361  0.00  0.00     0.163 C 
HETATM    6  C   UNK N   1      30.838  43.407  56.589  0.00  0.00     0.158 C 
HETATM    7  C   UNK N   1      30.607  44.386  57.834  0.00  0.00     0.008 C 
HETATM    8  C   UNK N   1      29.064  44.642  58.114  0.00  0.00     0.144 C 
HETATM    9  C   UNK N   1      28.438  43.499  58.952  0.00  0.00     0.069 C 
HETATM   10  C   UNK N   1      26.955  43.179  58.744  0.00  0.00     0.171 C 
HETATM   11  C   UNK N   1      26.710  41.782  59.408  0.00  0.00     0.111 A 
HETATM   12  O   UNK N   1      25.843  40.873  58.805  0.00  0.00    -0.366 OA
HETATM   13  C   UNK N   1      27.236  40.519  58.763  0.00  0.00     0.169 A 
HETATM   14  C   UNK N   1      27.570  40.234  57.261  0.00  0.00     0.090 C 
HETATM   15  C   UNK N   1      27.088  38.790  56.947  0.00  0.00     0.146 C 
HETATM   16  C   UNK N   1      28.292  37.890  57.356  0.00  0.00     0.015 C 
HETATM   17  C   UNK N   1      29.523  38.819  57.476  0.00  0.00     0.053 C 
HETATM   18  C   UNK N   1      28.507  36.667  56.456  0.00  0.00     0.012 C 
HETATM   19  C   UNK N   1      26.640  41.741  60.938  0.00  0.00     0.051 C 
HETATM   20  C   UNK N   1      31.336  43.875  59.107  0.00  0.00     0.020 C 
HETATM   21  C   UNK N   1      31.274  45.738  57.457  0.00  0.00     0.020 C 
HETATM   22  C   UNK N   1      30.107  41.434  55.048  0.00  0.00     0.086 C 
HETATM   23  C   UNK N   1      29.552  42.163  53.817  0.00  0.00     0.021 C 
ENDROOT
BRANCH  15  24
HETATM   24  O   UNK N   1      26.791  38.697  55.594  0.00  0.00    -0.311 OA
BRANCH  24  25
HETATM   25  C   UNK N   1      25.725  39.354  55.050  0.00  0.00     0.293 C 
HETATM   26  O   UNK N   1      24.600  39.165  55.493  0.00  0.00    -0.259 OA
BRANCH  25  27
HETATM   27  C   UNK N   1      25.923  40.348  53.970  0.00  0.00     0.039 A 
HETATM   28  C   UNK N   1      25.744  41.720  54.209  0.00  0.00     0.017 A 
HETATM   29  C   UNK N   1      25.882  42.640  53.165  0.00  0.00     0.001 A 
HETATM   30  C   UNK N   1      26.204  42.199  51.878  0.00  0.00     0.000 A 
HETATM   31  C   UNK N   1      26.399  40.839  51.635  0.00  0.00     0.001 A 
HETATM   32  C   UNK N   1      26.263  39.915  52.673  0.00  0.00     0.017 A 
ENDBRANCH  25  27
ENDBRANCH  24  25
ENDBRANCH  15  24
BRANCH  10  33
HETATM   33  O   UNK N   1      26.660  43.193  57.393  0.00  0.00    -0.313 OA
BRANCH  33  34
HETATM   34  C   UNK N   1      25.649  43.906  56.833  0.00  0.00     0.255 C 
HETATM   35  O   UNK N   1      25.883  44.863  56.108  0.00  0.00    -0.266 OA
HETATM   36  C   UNK N   1      24.237  43.482  57.078  0.00  0.00     0.126 C 
ENDBRANCH  33  34
ENDBRANCH  10  33
BRANCH   6  37
HETATM   37  O   UNK N   1      32.171  42.956  56.554  0.00  0.00    -0.392 OA
HETATM   38  H   UNK N   1      32.653  43.377  57.311  0.00  0.00     0.210 HD
ENDBRANCH   6  37
BRANCH   8  39
HETATM   39  O   UNK N   1      28.858  45.823  58.816  0.00  0.00    -0.315 OA
BRANCH  39  40
HETATM   40  C   UNK N   1      27.902  46.748  58.527  0.00  0.00     0.255 C 
HETATM   41  O   UNK N   1      26.775  46.658  58.994  0.00  0.00    -0.266 OA
HETATM   42  C   UNK N   1      28.236  47.881  57.614  0.00  0.00     0.126 C 
ENDBRANCH  39  40
ENDBRANCH   8  39
TORSDOF 8
ENDMDL
MODEL 7
REMARK VINA RESULT:      -4.9      2.548      4.711
REMARK  8 active torsions:
REMARK  status: ('A' for Active; 'I' for Inactive)
REMARK    1  A    between atoms: C_6  and  O_7 
REMARK    2  A    between atoms: C_10  and  O_11 
REMARK    3  A    between atoms: O_11  and  C_12 
REMARK    4  A    between atoms: C_16  and  O_17 
REMARK    5  A    between atoms: O_17  and  C_18 
REMARK    6  A    between atoms: C_25  and  O_26 
REMARK    7  A    between atoms: O_26  and  C_27 
REMARK    8  A    between atoms: C_27  and  C_29 
ROOT
HETATM    1  O   UNK N   1      30.021  38.160  59.323  0.00  0.00    -0.294 OA
HETATM    2  C   UNK N   1      29.922  39.294  59.762  0.00  0.00     0.168 C 
HETATM    3  C   UNK N   1      28.746  40.206  59.544  0.00  0.00     0.131 C 
HETATM    4  O   UNK N   1      28.909  41.158  60.585  0.00  0.00    -0.363 OA
HETATM    5  C   UNK N   1      30.309  41.292  60.748  0.00  0.00     0.163 C 
HETATM    6  C   UNK N   1      30.761  42.164  61.960  0.00  0.00     0.158 C 
HETATM    7  C   UNK N   1      30.394  43.722  62.008  0.00  0.00     0.008 C 
HETATM    8  C   UNK N   1      30.489  44.401  60.574  0.00  0.00     0.144 C 
HETATM    9  C   UNK N   1      29.201  44.166  59.745  0.00  0.00     0.069 C 
HETATM   10  C   UNK N   1      29.327  44.095  58.219  0.00  0.00     0.171 C 
HETATM   11  C   UNK N   1      27.984  43.483  57.697  0.00  0.00     0.111 A 
HETATM   12  O   UNK N   1      28.001  42.594  56.624  0.00  0.00    -0.366 OA
HETATM   13  C   UNK N   1      27.675  42.016  57.899  0.00  0.00     0.169 A 
HETATM   14  C   UNK N   1      28.653  40.811  58.096  0.00  0.00     0.090 C 
HETATM   15  C   UNK N   1      28.079  39.613  57.291  0.00  0.00     0.146 C 
HETATM   16  C   UNK N   1      27.086  38.931  58.280  0.00  0.00     0.015 C 
HETATM   17  C   UNK N   1      27.424  39.466  59.691  0.00  0.00     0.053 C 
HETATM   18  C   UNK N   1      27.034  37.402  58.176  0.00  0.00     0.012 C 
HETATM   19  C   UNK N   1      26.758  44.402  57.684  0.00  0.00     0.051 C 
HETATM   20  C   UNK N   1      29.004  43.963  62.657  0.00  0.00     0.020 C 
HETATM   21  C   UNK N   1      31.440  44.389  62.943  0.00  0.00     0.020 C 
HETATM   22  C   UNK N   1      30.862  39.860  60.741  0.00  0.00     0.086 C 
HETATM   23  C   UNK N   1      32.333  39.777  60.311  0.00  0.00     0.021 C 
ENDROOT
BRANCH  15  24
HETATM   24  O   UNK N   1      29.122  38.773  56.923  0.00  0.00    -0.311 OA
BRANCH  24  25
HETATM   25  C   UNK N   1      29.537  38.676  55.626  0.00  0.00     0.293 C 
HETATM   26  O   UNK N   1      29.981  37.618  55.204  0.00  0.00    -0.259 OA
BRANCH  25  27
HETATM   27  C   UNK N   1      29.391  39.824  54.700  0.00  0.00     0.039 A 
HETATM   28  C   UNK N   1      30.345  40.854  54.669  0.00  0.00     0.017 A 
HETATM   29  C   UNK N   1      30.163  41.956  53.828  0.00  0.00     0.001 A 
HETATM   30  C   UNK N   1      29.034  42.036  53.009  0.00  0.00     0.000 A 
HETATM   31  C   UNK N   1      28.088  41.009  53.022  0.00  0.00     0.001 A 
HETATM   32  C   UNK N   1      28.263  39.906  53.859  0.00  0.00     0.017 A 
ENDBRANCH  25  27
ENDBRANCH  24  25
ENDBRANCH  15  24
BRANCH  10  33
HETATM   33  O   UNK N   1      30.433  43.338  57.878  0.00  0.00    -0.313 OA
BRANCH  33  34
HETATM   34  C   UNK N   1      31.533  43.824  57.246  0.00  0.00     0.255 C 
HETATM   35  O   UNK N   1      32.281  43.079  56.629  0.00  0.00    -0.266 OA
HETATM   36  C   UNK N   1      31.799  45.294  57.275  0.00  0.00     0.126 C 
ENDBRANCH  33  34
ENDBRANCH  10  33
BRANCH   6  37
HETATM   37  O   UNK N   1      30.377  41.528  63.155  0.00  0.00    -0.392 OA
HETATM   38  H   UNK N   1      31.036  41.774  63.855  0.00  0.00     0.210 HD
ENDBRANCH   6  37
BRANCH   8  39
HETATM   39  O   UNK N   1      30.670  45.775  60.667  0.00  0.00    -0.315 OA
BRANCH  39  40
HETATM   40  C   UNK N   1      29.694  46.706  60.485  0.00  0.00     0.255 C 
HETATM   41  O   UNK N   1      28.807  46.861  61.313  0.00  0.00    -0.266 OA
HETATM   42  C   UNK N   1      29.703  47.539  59.245  0.00  0.00     0.126 C 
ENDBRANCH  39  40
ENDBRANCH   8  39
TORSDOF 8
ENDMDL
MODEL 8
REMARK VINA RESULT:      -4.9      2.517      4.243
REMARK  8 active torsions:
REMARK  status: ('A' for Active; 'I' for Inactive)
REMARK    1  A    between atoms: C_6  and  O_7 
REMARK    2  A    between atoms: C_10  and  O_11 
REMARK    3  A    between atoms: O_11  and  C_12 
REMARK    4  A    between atoms: C_16  and  O_17 
REMARK    5  A    between atoms: O_17  and  C_18 
REMARK    6  A    between atoms: C_25  and  O_26 
REMARK    7  A    between atoms: O_26  and  C_27 
REMARK    8  A    between atoms: C_27  and  C_29 
ROOT
HETATM    1  O   UNK N   1      27.261  39.946  58.436  0.00  0.00    -0.294 OA
HETATM    2  C   UNK N   1      27.707  40.788  59.197  0.00  0.00     0.168 C 
HETATM    3  C   UNK N   1      27.825  42.255  58.892  0.00  0.00     0.131 C 
HETATM    4  O   UNK N   1      27.949  42.823  60.189  0.00  0.00    -0.363 OA
HETATM    5  C   UNK N   1      28.661  41.861  60.945  0.00  0.00     0.163 C 
HETATM    6  C   UNK N   1      28.786  42.168  62.470  0.00  0.00     0.158 C 
HETATM    7  C   UNK N   1      29.590  43.462  62.963  0.00  0.00     0.008 C 
HETATM    8  C   UNK N   1      30.883  43.732  62.080  0.00  0.00     0.144 C 
HETATM    9  C   UNK N   1      30.535  44.498  60.779  0.00  0.00     0.069 C 
HETATM   10  C   UNK N   1      31.404  44.252  59.541  0.00  0.00     0.171 C 
HETATM   11  C   UNK N   1      30.609  44.835  58.325  0.00  0.00     0.111 A 
HETATM   12  O   UNK N   1      30.636  44.171  57.100  0.00  0.00    -0.366 OA
HETATM   13  C   UNK N   1      29.380  44.130  57.797  0.00  0.00     0.169 A 
HETATM   14  C   UNK N   1      28.981  42.620  57.892  0.00  0.00     0.090 C 
HETATM   15  C   UNK N   1      28.353  42.221  56.528  0.00  0.00     0.146 C 
HETATM   16  C   UNK N   1      26.849  42.598  56.676  0.00  0.00     0.015 C 
HETATM   17  C   UNK N   1      26.584  42.786  58.188  0.00  0.00     0.053 C 
HETATM   18  C   UNK N   1      25.880  41.636  55.977  0.00  0.00     0.012 C 
HETATM   19  C   UNK N   1      30.591  46.360  58.171  0.00  0.00     0.051 C 
HETATM   20  C   UNK N   1      28.675  44.715  63.027  0.00  0.00     0.020 C 
HETATM   21  C   UNK N   1      30.039  43.167  64.422  0.00  0.00     0.020 C 
HETATM   22  C   UNK N   1      28.011  40.511  60.610  0.00  0.00     0.086 C 
HETATM   23  C   UNK N   1      28.948  39.315  60.822  0.00  0.00     0.021 C 
ENDROOT
BRANCH  15  24
HETATM   24  O   UNK N   1      28.543  40.861  56.323  0.00  0.00    -0.311 OA
BRANCH  24  25
HETATM   25  C   UNK N   1      29.168  40.387  55.205  0.00  0.00     0.293 C 
HETATM   26  O   UNK N   1      29.963  39.462  55.296  0.00  0.00    -0.259 OA
BRANCH  25  27
HETATM   27  C   UNK N   1      28.842  40.937  53.868  0.00  0.00     0.039 A 
HETATM   28  C   UNK N   1      29.631  41.943  53.288  0.00  0.00     0.017 A 
HETATM   29  C   UNK N   1      29.278  42.489  52.050  0.00  0.00     0.001 A 
HETATM   30  C   UNK N   1      28.140  42.032  51.381  0.00  0.00     0.000 A 
HETATM   31  C   UNK N   1      27.358  41.021  51.943  0.00  0.00     0.001 A 
HETATM   32  C   UNK N   1      27.705  40.472  53.178  0.00  0.00     0.017 A 
ENDBRANCH  25  27
ENDBRANCH  24  25
ENDBRANCH  15  24
BRANCH  10  33
HETATM   33  O   UNK N   1      31.664  42.900  59.416  0.00  0.00    -0.313 OA
BRANCH  33  34
HETATM   34  C   UNK N   1      32.899  42.369  59.219  0.00  0.00     0.255 C 
HETATM   35  O   UNK N   1      33.676  42.870  58.419  0.00  0.00    -0.266 OA
HETATM   36  C   UNK N   1      33.319  41.183  60.027  0.00  0.00     0.126 C 
ENDBRANCH  33  34
ENDBRANCH  10  33
BRANCH   6  37
HETATM   37  O   UNK N   1      27.506  42.127  63.055  0.00  0.00    -0.392 OA
HETATM   38  H   UNK N   1      27.193  43.063  63.164  0.00  0.00     0.210 HD
ENDBRANCH   6  37
BRANCH   8  39
HETATM   39  O   UNK N   1      31.822  44.495  62.764  0.00  0.00    -0.315 OA
BRANCH  39  40
HETATM   40  C   UNK N   1      33.052  44.058  63.149  0.00  0.00     0.255 C 
HETATM   41  O   UNK N   1      33.268  43.716  64.303  0.00  0.00    -0.266 OA
HETATM   42  C   UNK N   1      34.157  44.012  62.144  0.00  0.00     0.126 C 
ENDBRANCH  39  40
ENDBRANCH   8  39
TORSDOF 8
ENDMDL
MODEL 9
REMARK VINA RESULT:      -4.9     19.729     22.827
REMARK  8 active torsions:
REMARK  status: ('A' for Active; 'I' for Inactive)
REMARK    1  A    between atoms: C_6  and  O_7 
REMARK    2  A    between atoms: C_10  and  O_11 
REMARK    3  A    between atoms: O_11  and  C_12 
REMARK    4  A    between atoms: C_16  and  O_17 
REMARK    5  A    between atoms: O_17  and  C_18 
REMARK    6  A    between atoms: C_25  and  O_26 
REMARK    7  A    between atoms: O_26  and  C_27 
REMARK    8  A    between atoms: C_27  and  C_29 
ROOT
HETATM    1  O   UNK N   1      45.724  48.577  62.378  0.00  0.00    -0.294 OA
HETATM    2  C   UNK N   1      46.766  49.062  61.969  0.00  0.00     0.168 C 
HETATM    3  C   UNK N   1      47.654  49.990  62.750  0.00  0.00     0.131 C 
HETATM    4  O   UNK N   1      48.885  49.889  62.049  0.00  0.00    -0.363 OA
HETATM    5  C   UNK N   1      48.524  49.697  60.694  0.00  0.00     0.163 C 
HETATM    6  C   UNK N   1      49.705  49.383  59.725  0.00  0.00     0.158 C 
HETATM    7  C   UNK N   1      50.854  50.471  59.483  0.00  0.00     0.008 C 
HETATM    8  C   UNK N   1      50.273  51.950  59.434  0.00  0.00     0.144 C 
HETATM    9  C   UNK N   1      50.079  52.533  60.856  0.00  0.00     0.069 C 
HETATM   10  C   UNK N   1      48.956  53.554  61.071  0.00  0.00     0.171 C 
HETATM   11  C   UNK N   1      48.755  53.665  62.619  0.00  0.00     0.111 A 
HETATM   12  O   UNK N   1      47.471  53.812  63.140  0.00  0.00    -0.366 OA
HETATM   13  C   UNK N   1      48.099  52.544  63.394  0.00  0.00     0.169 A 
HETATM   14  C   UNK N   1      47.093  51.451  62.903  0.00  0.00     0.090 C 
HETATM   15  C   UNK N   1      46.031  51.264  64.021  0.00  0.00     0.146 C 
HETATM   16  C   UNK N   1      46.665  50.209  64.976  0.00  0.00     0.015 C 
HETATM   17  C   UNK N   1      47.815  49.534  64.193  0.00  0.00     0.053 C 
HETATM   18  C   UNK N   1      45.662  49.231  65.600  0.00  0.00     0.012 C 
HETATM   19  C   UNK N   1      49.805  54.458  63.404  0.00  0.00     0.051 C 
HETATM   20  C   UNK N   1      51.992  50.344  60.531  0.00  0.00     0.020 C 
HETATM   21  C   UNK N   1      51.486  50.140  58.102  0.00  0.00     0.020 C 
HETATM   22  C   UNK N   1      47.407  48.643  60.713  0.00  0.00     0.086 C 
HETATM   23  C   UNK N   1      46.483  48.713  59.490  0.00  0.00     0.021 C 
ENDROOT
BRANCH  15  24
HETATM   24  O   UNK N   1      44.845  50.819  63.450  0.00  0.00    -0.311 OA
BRANCH  24  25
HETATM   25  C   UNK N   1      44.129  51.601  62.590  0.00  0.00     0.293 C 
HETATM   26  O   UNK N   1      43.899  51.208  61.455  0.00  0.00    -0.259 OA
BRANCH  25  27
HETATM   27  C   UNK N   1      43.565  52.895  63.039  0.00  0.00     0.039 A 
HETATM   28  C   UNK N   1      42.355  52.949  63.748  0.00  0.00     0.017 A 
HETATM   29  C   UNK N   1      41.810  54.183  64.117  0.00  0.00     0.001 A 
HETATM   30  C   UNK N   1      42.471  55.369  63.786  0.00  0.00     0.000 A 
HETATM   31  C   UNK N   1      43.682  55.325  63.095  0.00  0.00     0.001 A 
HETATM   32  C   UNK N   1      44.231  54.096  62.724  0.00  0.00     0.017 A 
ENDBRANCH  25  27
ENDBRANCH  24  25
ENDBRANCH  15  24
BRANCH  10  33
HETATM   33  O   UNK N   1      47.816  53.139  60.407  0.00  0.00    -0.313 OA
BRANCH  33  34
HETATM   34  C   UNK N   1      46.944  53.971  59.781  0.00  0.00     0.255 C 
HETATM   35  O   UNK N   1      45.756  53.694  59.707  0.00  0.00    -0.266 OA
HETATM   36  C   UNK N   1      47.447  55.261  59.216  0.00  0.00     0.126 C 
ENDBRANCH  33  34
ENDBRANCH  10  33
BRANCH   6  37
HETATM   37  O   UNK N   1      50.266  48.138  60.068  0.00  0.00    -0.392 OA
HETATM   38  H   UNK N   1      49.980  47.922  60.994  0.00  0.00     0.210 HD
ENDBRANCH   6  37
BRANCH   8  39
HETATM   39  O   UNK N   1      51.122  52.812  58.751  0.00  0.00    -0.315 OA
BRANCH  39  40
HETATM   40  C   UNK N   1      50.717  53.798  57.904  0.00  0.00     0.255 C 
HETATM   41  O   UNK N   1      51.085  54.954  58.060  0.00  0.00    -0.266 OA
HETATM   42  C   UNK N   1      49.798  53.460  56.777  0.00  0.00     0.126 C 
ENDBRANCH  39  40
ENDBRANCH   8  39
TORSDOF 8
ENDMDL
