MODEL 1
REMARK VINA RESULT:      -5.1      0.000      0.000
REMARK  9 active torsions:
REMARK  status: ('A' for Active; 'I' for Inactive)
REMARK    1  A    between atoms: C_9  and  O_10 
REMARK    2  A    between atoms: O_10  and  C_11 
REMARK    3  A    between atoms: C_15  and  O_16 
REMARK    4  A    between atoms: O_16  and  C_17 
REMARK    5  A    between atoms: C_17  and  C_19 
REMARK    6  A    between atoms: C_30  and  O_31 
REMARK    7  A    between atoms: O_31  and  C_32 
REMARK    8  A    between atoms: C_35  and  O_36 
REMARK    9  A    between atoms: O_36  and  C_37 
ROOT
HETATM    1  O   UNK N   1      28.482  44.020  59.638  0.00  0.00    -0.294 OA
HETATM    2  C   UNK N   1      29.489  43.373  59.381  0.00  0.00     0.170 C 
HETATM    3  C   UNK N   1      30.070  42.404  60.436  0.00  0.00     0.033 C 
HETATM    4  C   UNK N   1      30.402  41.068  59.753  0.00  0.00    -0.013 C 
HETATM    5  C   UNK N   1      29.842  39.870  59.997  0.00  0.00    -0.018 C 
HETATM    6  C   UNK N   1      30.252  38.678  59.157  0.00  0.00     0.077 C 
HETATM    7  C   UNK N   1      29.038  38.003  58.549  0.00  0.00     0.170 C 
HETATM    8  O   UNK N   1      28.252  37.431  59.294  0.00  0.00    -0.294 OA
HETATM    9  C   UNK N   1      28.802  37.981  57.028  0.00  0.00     0.141 C 
HETATM   10  C   UNK N   1      28.298  39.391  56.536  0.00  0.00     0.081 C 
HETATM   11  C   UNK N   1      27.068  39.098  55.652  0.00  0.00     0.147 C 
HETATM   12  C   UNK N   1      26.421  37.890  56.338  0.00  0.00     0.015 C 
HETATM   13  C   UNK N   1      27.641  37.019  56.613  0.00  0.00     0.054 C 
HETATM   14  C   UNK N   1      25.632  38.248  57.608  0.00  0.00     0.012 C 
HETATM   15  C   UNK N   1      29.304  40.281  55.795  0.00  0.00    -0.011 C 
HETATM   16  C   UNK N   1      29.567  41.603  56.025  0.00  0.00    -0.055 C 
HETATM   17  C   UNK N   1      28.916  42.406  57.148  0.00  0.00     0.197 C 
HETATM   18  C   UNK N   1      29.936  43.281  57.927  0.00  0.00     0.236 C 
HETATM   19  C   UNK N   1      30.506  42.326  55.082  0.00  0.00     0.046 C 
HETATM   20  C   UNK N   1      31.049  37.691  60.014  0.00  0.00     0.022 C 
HETATM   21  C   UNK N   1      31.377  42.989  60.997  0.00  0.00     0.027 C 
HETATM   22  C   UNK N   1      29.073  42.229  61.607  0.00  0.00     0.027 C 
ENDROOT
BRANCH  11  23
HETATM   23  O   UNK N   1      27.473  38.720  54.379  0.00  0.00    -0.311 OA
BRANCH  23  24
HETATM   24  C   UNK N   1      27.001  39.279  53.231  0.00  0.00     0.293 C 
HETATM   25  O   UNK N   1      26.302  38.631  52.466  0.00  0.00    -0.259 OA
BRANCH  24  26
HETATM   26  C   UNK N   1      27.377  40.670  52.891  0.00  0.00     0.039 A 
HETATM   27  C   UNK N   1      28.480  40.928  52.055  0.00  0.00     0.017 A 
HETATM   28  C   UNK N   1      28.831  42.245  51.743  0.00  0.00     0.001 A 
HETATM   29  C   UNK N   1      28.087  43.309  52.256  0.00  0.00     0.000 A 
HETATM   30  C   UNK N   1      26.990  43.060  53.085  0.00  0.00     0.001 A 
HETATM   31  C   UNK N   1      26.636  41.747  53.404  0.00  0.00     0.017 A 
ENDBRANCH  24  26
ENDBRANCH  23  24
ENDBRANCH  11  23
BRANCH   9  32
HETATM   32  O   UNK N   1      29.964  37.595  56.365  0.00  0.00    -0.302 OA
BRANCH  32  33
HETATM   33  C   UNK N   1      30.074  36.544  55.507  0.00  0.00     0.256 C 
HETATM   34  O   UNK N   1      30.448  35.447  55.899  0.00  0.00    -0.266 OA
HETATM   35  C   UNK N   1      29.729  36.738  54.067  0.00  0.00     0.126 C 
ENDBRANCH  32  33
ENDBRANCH   9  32
BRANCH  17  36
HETATM   36  O   UNK N   1      27.920  43.202  56.603  0.00  0.00    -0.309 OA
BRANCH  36  37
HETATM   37  C   UNK N   1      26.593  43.109  56.881  0.00  0.00     0.255 C 
HETATM   38  O   UNK N   1      25.790  43.897  56.402  0.00  0.00    -0.266 OA
HETATM   39  C   UNK N   1      26.123  42.037  57.809  0.00  0.00     0.126 C 
ENDBRANCH  36  37
ENDBRANCH  17  36
BRANCH  18  40
HETATM   40  O   UNK N   1      30.050  44.525  57.327  0.00  0.00    -0.306 OA
BRANCH  40  41
HETATM   41  C   UNK N   1      31.058  45.407  57.546  0.00  0.00     0.255 C 
HETATM   42  O   UNK N   1      32.223  45.093  57.349  0.00  0.00    -0.266 OA
HETATM   43  C   UNK N   1      30.722  46.792  57.999  0.00  0.00     0.126 C 
ENDBRANCH  40  41
ENDBRANCH  18  40
TORSDOF 9
ENDMDL
MODEL 2
REMARK VINA RESULT:      -4.8      2.130      3.431
REMARK  9 active torsions:
REMARK  status: ('A' for Active; 'I' for Inactive)
REMARK    1  A    between atoms: C_9  and  O_10 
REMARK    2  A    between atoms: O_10  and  C_11 
REMARK    3  A    between atoms: C_15  and  O_16 
REMARK    4  A    between atoms: O_16  and  C_17 
REMARK    5  A    between atoms: C_17  and  C_19 
REMARK    6  A    between atoms: C_30  and  O_31 
REMARK    7  A    between atoms: O_31  and  C_32 
REMARK    8  A    between atoms: C_35  and  O_36 
REMARK    9  A    between atoms: O_36  and  C_37 
ROOT
HETATM    1  O   UNK N   1      29.866  42.717  60.394  0.00  0.00    -0.294 OA
HETATM    2  C   UNK N   1      30.320  41.798  59.726  0.00  0.00     0.170 C 
HETATM    3  C   UNK N   1      29.909  40.341  60.041  0.00  0.00     0.033 C 
HETATM    4  C   UNK N   1      29.557  39.630  58.724  0.00  0.00    -0.013 C 
HETATM    5  C   UNK N   1      28.359  39.140  58.360  0.00  0.00    -0.018 C 
HETATM    6  C   UNK N   1      28.195  38.539  56.979  0.00  0.00     0.077 C 
HETATM    7  C   UNK N   1      27.036  39.184  56.245  0.00  0.00     0.170 C 
HETATM    8  O   UNK N   1      25.899  38.989  56.658  0.00  0.00    -0.294 OA
HETATM    9  C   UNK N   1      27.251  40.030  54.977  0.00  0.00     0.141 C 
HETATM   10  C   UNK N   1      27.831  41.445  55.361  0.00  0.00     0.081 C 
HETATM   11  C   UNK N   1      26.959  42.463  54.597  0.00  0.00     0.147 C 
HETATM   12  C   UNK N   1      25.570  41.817  54.610  0.00  0.00     0.015 C 
HETATM   13  C   UNK N   1      25.912  40.376  54.249  0.00  0.00     0.054 C 
HETATM   14  C   UNK N   1      24.838  41.947  55.956  0.00  0.00     0.012 C 
HETATM   15  C   UNK N   1      29.321  41.694  55.094  0.00  0.00    -0.011 C 
HETATM   16  C   UNK N   1      30.239  42.229  55.956  0.00  0.00    -0.055 C 
HETATM   17  C   UNK N   1      29.914  42.612  57.397  0.00  0.00     0.197 C 
HETATM   18  C   UNK N   1      30.997  42.133  58.402  0.00  0.00     0.236 C 
HETATM   19  C   UNK N   1      31.634  42.512  55.438  0.00  0.00     0.046 C 
HETATM   20  C   UNK N   1      27.990  37.027  57.094  0.00  0.00     0.022 C 
HETATM   21  C   UNK N   1      31.098  39.604  60.678  0.00  0.00     0.027 C 
HETATM   22  C   UNK N   1      28.731  40.324  61.045  0.00  0.00     0.027 C 
ENDROOT
BRANCH  11  23
HETATM   23  O   UNK N   1      27.387  42.567  53.281  0.00  0.00    -0.311 OA
BRANCH  23  24
HETATM   24  C   UNK N   1      26.828  43.399  52.359  0.00  0.00     0.293 C 
HETATM   25  O   UNK N   1      26.797  44.606  52.551  0.00  0.00    -0.259 OA
BRANCH  24  26
HETATM   26  C   UNK N   1      26.218  42.827  51.138  0.00  0.00     0.039 A 
HETATM   27  C   UNK N   1      25.316  43.585  50.367  0.00  0.00     0.017 A 
HETATM   28  C   UNK N   1      24.742  43.036  49.217  0.00  0.00     0.001 A 
HETATM   29  C   UNK N   1      25.064  41.735  48.826  0.00  0.00     0.000 A 
HETATM   30  C   UNK N   1      25.960  40.977  49.584  0.00  0.00     0.001 A 
HETATM   31  C   UNK N   1      26.535  41.519  50.736  0.00  0.00     0.017 A 
ENDBRANCH  24  26
ENDBRANCH  23  24
ENDBRANCH  11  23
BRANCH   9  32
HETATM   32  O   UNK N   1      28.088  39.361  54.088  0.00  0.00    -0.302 OA
BRANCH  32  33
HETATM   33  C   UNK N   1      27.758  38.247  53.377  0.00  0.00     0.256 C 
HETATM   34  O   UNK N   1      26.833  38.261  52.577  0.00  0.00    -0.266 OA
HETATM   35  C   UNK N   1      28.544  36.993  53.580  0.00  0.00     0.126 C 
ENDBRANCH  32  33
ENDBRANCH   9  32
BRANCH  17  36
HETATM   36  O   UNK N   1      29.771  43.990  57.467  0.00  0.00    -0.309 OA
BRANCH  36  37
HETATM   37  C   UNK N   1      28.690  44.648  57.960  0.00  0.00     0.255 C 
HETATM   38  O   UNK N   1      28.777  45.804  58.350  0.00  0.00    -0.266 OA
HETATM   39  C   UNK N   1      27.384  43.928  58.047  0.00  0.00     0.126 C 
ENDBRANCH  36  37
ENDBRANCH  17  36
BRANCH  18  40
HETATM   40  O   UNK N   1      31.979  43.103  58.539  0.00  0.00    -0.306 OA
BRANCH  40  41
HETATM   41  C   UNK N   1      33.246  42.875  58.970  0.00  0.00     0.255 C 
HETATM   42  O   UNK N   1      34.148  42.648  58.176  0.00  0.00    -0.266 OA
HETATM   43  C   UNK N   1      33.536  42.941  60.435  0.00  0.00     0.126 C 
ENDBRANCH  40  41
ENDBRANCH  18  40
TORSDOF 9
ENDMDL
MODEL 3
REMARK VINA RESULT:      -4.7      2.099      7.314
REMARK  9 active torsions:
REMARK  status: ('A' for Active; 'I' for Inactive)
REMARK    1  A    between atoms: C_9  and  O_10 
REMARK    2  A    between atoms: O_10  and  C_11 
REMARK    3  A    between atoms: C_15  and  O_16 
REMARK    4  A    between atoms: O_16  and  C_17 
REMARK    5  A    between atoms: C_17  and  C_19 
REMARK    6  A    between atoms: C_30  and  O_31 
REMARK    7  A    between atoms: O_31  and  C_32 
REMARK    8  A    between atoms: C_35  and  O_36 
REMARK    9  A    between atoms: O_36  and  C_37 
ROOT
HETATM    1  O   UNK N   1      29.904  38.952  55.002  0.00  0.00    -0.294 OA
HETATM    2  C   UNK N   1      28.960  39.101  55.766  0.00  0.00     0.170 C 
HETATM    3  C   UNK N   1      28.775  38.133  56.957  0.00  0.00     0.033 C 
HETATM    4  C   UNK N   1      28.471  38.955  58.221  0.00  0.00    -0.013 C 
HETATM    5  C   UNK N   1      29.225  39.047  59.330  0.00  0.00    -0.018 C 
HETATM    6  C   UNK N   1      28.790  39.977  60.444  0.00  0.00     0.077 C 
HETATM    7  C   UNK N   1      29.905  40.936  60.813  0.00  0.00     0.170 C 
HETATM    8  O   UNK N   1      30.912  40.486  61.344  0.00  0.00    -0.294 OA
HETATM    9  C   UNK N   1      29.778  42.452  60.581  0.00  0.00     0.141 C 
HETATM   10  C   UNK N   1      29.963  42.785  59.052  0.00  0.00     0.081 C 
HETATM   11  C   UNK N   1      30.978  43.945  59.007  0.00  0.00     0.147 C 
HETATM   12  C   UNK N   1      31.922  43.633  60.173  0.00  0.00     0.015 C 
HETATM   13  C   UNK N   1      30.925  43.264  61.267  0.00  0.00     0.054 C 
HETATM   14  C   UNK N   1      32.932  42.515  59.871  0.00  0.00     0.012 C 
HETATM   15  C   UNK N   1      28.703  43.131  58.246  0.00  0.00    -0.011 C 
HETATM   16  C   UNK N   1      28.329  42.622  57.033  0.00  0.00    -0.055 C 
HETATM   17  C   UNK N   1      29.114  41.539  56.299  0.00  0.00     0.197 C 
HETATM   18  C   UNK N   1      28.200  40.421  55.726  0.00  0.00     0.236 C 
HETATM   19  C   UNK N   1      27.108  43.205  56.352  0.00  0.00     0.046 C 
HETATM   20  C   UNK N   1      28.354  39.158  61.661  0.00  0.00     0.022 C 
HETATM   21  C   UNK N   1      27.571  37.216  56.685  0.00  0.00     0.027 C 
HETATM   22  C   UNK N   1      30.033  37.248  57.127  0.00  0.00     0.027 C 
ENDROOT
BRANCH  11  23
HETATM   23  O   UNK N   1      30.339  45.151  59.264  0.00  0.00    -0.311 OA
BRANCH  23  24
HETATM   24  C   UNK N   1      30.468  46.263  58.490  0.00  0.00     0.293 C 
HETATM   25  O   UNK N   1      31.022  46.203  57.402  0.00  0.00    -0.259 OA
BRANCH  24  26
HETATM   26  C   UNK N   1      29.967  47.562  58.994  0.00  0.00     0.039 A 
HETATM   27  C   UNK N   1      29.954  48.696  58.160  0.00  0.00     0.017 A 
HETATM   28  C   UNK N   1      29.483  49.919  58.645  0.00  0.00     0.001 A 
HETATM   29  C   UNK N   1      29.020  50.020  59.959  0.00  0.00     0.000 A 
HETATM   30  C   UNK N   1      29.027  48.899  60.792  0.00  0.00     0.001 A 
HETATM   31  C   UNK N   1      29.500  47.674  60.314  0.00  0.00     0.017 A 
ENDBRANCH  24  26
ENDBRANCH  23  24
ENDBRANCH  11  23
BRANCH   9  32
HETATM   32  O   UNK N   1      28.554  42.913  61.059  0.00  0.00    -0.302 OA
BRANCH  32  33
HETATM   33  C   UNK N   1      28.334  43.437  62.297  0.00  0.00     0.256 C 
HETATM   34  O   UNK N   1      28.312  42.721  63.288  0.00  0.00    -0.266 OA
HETATM   35  C   UNK N   1      28.119  44.907  62.439  0.00  0.00     0.126 C 
ENDBRANCH  32  33
ENDBRANCH   9  32
BRANCH  17  36
HETATM   36  O   UNK N   1      29.841  42.133  55.278  0.00  0.00    -0.309 OA
BRANCH  36  37
HETATM   37  C   UNK N   1      31.193  42.102  55.149  0.00  0.00     0.255 C 
HETATM   38  O   UNK N   1      31.730  41.422  54.286  0.00  0.00    -0.266 OA
HETATM   39  C   UNK N   1      32.028  42.894  56.100  0.00  0.00     0.126 C 
ENDBRANCH  36  37
ENDBRANCH  17  36
BRANCH  18  40
HETATM   40  O   UNK N   1      27.785  40.757  54.447  0.00  0.00    -0.306 OA
BRANCH  40  41
HETATM   41  C   UNK N   1      26.902  40.046  53.701  0.00  0.00     0.255 C 
HETATM   42  O   UNK N   1      27.212  39.616  52.600  0.00  0.00    -0.266 OA
HETATM   43  C   UNK N   1      25.546  39.758  54.263  0.00  0.00     0.126 C 
ENDBRANCH  40  41
ENDBRANCH  18  40
TORSDOF 9
ENDMDL
MODEL 4
REMARK VINA RESULT:      -4.7      2.836      7.844
REMARK  9 active torsions:
REMARK  status: ('A' for Active; 'I' for Inactive)
REMARK    1  A    between atoms: C_9  and  O_10 
REMARK    2  A    between atoms: O_10  and  C_11 
REMARK    3  A    between atoms: C_15  and  O_16 
REMARK    4  A    between atoms: O_16  and  C_17 
REMARK    5  A    between atoms: C_17  and  C_19 
REMARK    6  A    between atoms: C_30  and  O_31 
REMARK    7  A    between atoms: O_31  and  C_32 
REMARK    8  A    between atoms: C_35  and  O_36 
REMARK    9  A    between atoms: O_36  and  C_37 
ROOT
HETATM    1  O   UNK N   1      30.919  39.643  59.844  0.00  0.00    -0.294 OA
HETATM    2  C   UNK N   1      29.740  39.944  59.712  0.00  0.00     0.170 C 
HETATM    3  C   UNK N   1      28.769  39.793  60.905  0.00  0.00     0.033 C 
HETATM    4  C   UNK N   1      27.916  41.067  61.015  0.00  0.00    -0.013 C 
HETATM    5  C   UNK N   1      27.902  41.949  62.031  0.00  0.00    -0.018 C 
HETATM    6  C   UNK N   1      27.044  43.193  61.916  0.00  0.00     0.077 C 
HETATM    7  C   UNK N   1      27.869  44.440  62.164  0.00  0.00     0.170 C 
HETATM    8  O   UNK N   1      28.312  44.636  63.289  0.00  0.00    -0.294 OA
HETATM    9  C   UNK N   1      28.116  45.480  61.056  0.00  0.00     0.141 C 
HETATM   10  C   UNK N   1      29.190  44.941  60.036  0.00  0.00     0.081 C 
HETATM   11  C   UNK N   1      30.201  46.093  59.861  0.00  0.00     0.147 C 
HETATM   12  C   UNK N   1      30.248  46.734  61.252  0.00  0.00     0.015 C 
HETATM   13  C   UNK N   1      28.764  46.796  61.598  0.00  0.00     0.054 C 
HETATM   14  C   UNK N   1      31.076  45.939  62.274  0.00  0.00     0.012 C 
HETATM   15  C   UNK N   1      28.686  44.446  58.674  0.00  0.00    -0.011 C 
HETATM   16  C   UNK N   1      29.008  43.275  58.046  0.00  0.00    -0.055 C 
HETATM   17  C   UNK N   1      29.907  42.209  58.667  0.00  0.00     0.197 C 
HETATM   18  C   UNK N   1      29.339  40.774  58.498  0.00  0.00     0.236 C 
HETATM   19  C   UNK N   1      28.498  43.047  56.639  0.00  0.00     0.046 C 
HETATM   20  C   UNK N   1      25.877  43.109  62.903  0.00  0.00     0.022 C 
HETATM   21  C   UNK N   1      27.824  38.609  60.644  0.00  0.00     0.027 C 
HETATM   22  C   UNK N   1      29.560  39.507  62.205  0.00  0.00     0.027 C 
ENDROOT
BRANCH  11  23
HETATM   23  O   UNK N   1      29.711  47.027  58.959  0.00  0.00    -0.311 OA
BRANCH  23  24
HETATM   24  C   UNK N   1      30.284  47.300  57.755  0.00  0.00     0.293 C 
HETATM   25  O   UNK N   1      31.147  46.565  57.297  0.00  0.00    -0.259 OA
BRANCH  24  26
HETATM   26  C   UNK N   1      29.884  48.521  57.019  0.00  0.00     0.039 A 
HETATM   27  C   UNK N   1      28.535  48.922  56.980  0.00  0.00     0.017 A 
HETATM   28  C   UNK N   1      28.164  50.073  56.280  0.00  0.00     0.001 A 
HETATM   29  C   UNK N   1      29.132  50.832  55.618  0.00  0.00     0.000 A 
HETATM   30  C   UNK N   1      30.473  50.442  55.654  0.00  0.00     0.001 A 
HETATM   31  C   UNK N   1      30.849  49.290  56.349  0.00  0.00     0.017 A 
ENDBRANCH  24  26
ENDBRANCH  23  24
ENDBRANCH  11  23
BRANCH   9  32
HETATM   32  O   UNK N   1      26.921  45.798  60.417  0.00  0.00    -0.302 OA
BRANCH  32  33
HETATM   33  C   UNK N   1      26.139  46.878  60.692  0.00  0.00     0.256 C 
HETATM   34  O   UNK N   1      25.438  46.909  61.694  0.00  0.00    -0.266 OA
HETATM   35  C   UNK N   1      26.144  48.041  59.754  0.00  0.00     0.126 C 
ENDBRANCH  32  33
ENDBRANCH   9  32
BRANCH  17  36
HETATM   36  O   UNK N   1      31.164  42.298  58.087  0.00  0.00    -0.309 OA
BRANCH  36  37
HETATM   37  C   UNK N   1      32.277  42.797  58.686  0.00  0.00     0.255 C 
HETATM   38  O   UNK N   1      33.257  43.120  58.029  0.00  0.00    -0.266 OA
HETATM   39  C   UNK N   1      32.302  42.923  60.173  0.00  0.00     0.126 C 
ENDBRANCH  36  37
ENDBRANCH  17  36
BRANCH  18  40
HETATM   40  O   UNK N   1      29.786  40.223  57.307  0.00  0.00    -0.306 OA
BRANCH  40  41
HETATM   41  C   UNK N   1      29.043  39.448  56.478  0.00  0.00     0.255 C 
HETATM   42  O   UNK N   1      28.055  38.856  56.889  0.00  0.00    -0.266 OA
HETATM   43  C   UNK N   1      29.425  39.356  55.035  0.00  0.00     0.126 C 
ENDBRANCH  40  41
ENDBRANCH  18  40
TORSDOF 9
ENDMDL
MODEL 5
REMARK VINA RESULT:      -4.5      2.803      8.019
REMARK  9 active torsions:
REMARK  status: ('A' for Active; 'I' for Inactive)
REMARK    1  A    between atoms: C_9  and  O_10 
REMARK    2  A    between atoms: O_10  and  C_11 
REMARK    3  A    between atoms: C_15  and  O_16 
REMARK    4  A    between atoms: O_16  and  C_17 
REMARK    5  A    between atoms: C_17  and  C_19 
REMARK    6  A    between atoms: C_30  and  O_31 
REMARK    7  A    between atoms: O_31  and  C_32 
REMARK    8  A    between atoms: C_35  and  O_36 
REMARK    9  A    between atoms: O_36  and  C_37 
ROOT
HETATM    1  O   UNK N   1      26.914  40.531  55.927  0.00  0.00    -0.294 OA
HETATM    2  C   UNK N   1      27.253  41.699  55.794  0.00  0.00     0.170 C 
HETATM    3  C   UNK N   1      26.178  42.796  55.609  0.00  0.00     0.033 C 
HETATM    4  C   UNK N   1      26.515  43.979  56.531  0.00  0.00    -0.013 C 
HETATM    5  C   UNK N   1      25.786  44.436  57.565  0.00  0.00    -0.018 C 
HETATM    6  C   UNK N   1      26.329  45.573  58.406  0.00  0.00     0.077 C 
HETATM    7  C   UNK N   1      26.341  45.198  59.875  0.00  0.00     0.170 C 
HETATM    8  O   UNK N   1      25.270  45.050  60.451  0.00  0.00    -0.294 OA
HETATM    9  C   UNK N   1      27.656  45.050  60.662  0.00  0.00     0.141 C 
HETATM   10  C   UNK N   1      28.365  43.694  60.283  0.00  0.00     0.081 C 
HETATM   11  C   UNK N   1      28.734  43.038  61.630  0.00  0.00     0.147 C 
HETATM   12  C   UNK N   1      27.574  43.439  62.547  0.00  0.00     0.015 C 
HETATM   13  C   UNK N   1      27.424  44.917  62.203  0.00  0.00     0.054 C 
HETATM   14  C   UNK N   1      26.289  42.629  62.312  0.00  0.00     0.012 C 
HETATM   15  C   UNK N   1      29.588  43.770  59.360  0.00  0.00    -0.011 C 
HETATM   16  C   UNK N   1      29.833  43.016  58.246  0.00  0.00    -0.055 C 
HETATM   17  C   UNK N   1      28.850  41.986  57.696  0.00  0.00     0.197 C 
HETATM   18  C   UNK N   1      28.683  42.082  56.154  0.00  0.00     0.236 C 
HETATM   19  C   UNK N   1      31.173  43.165  57.555  0.00  0.00     0.046 C 
HETATM   20  C   UNK N   1      25.492  46.833  58.174  0.00  0.00     0.022 C 
HETATM   21  C   UNK N   1      26.210  43.299  54.157  0.00  0.00     0.027 C 
HETATM   22  C   UNK N   1      24.771  42.217  55.893  0.00  0.00     0.027 C 
ENDROOT
BRANCH  11  23
HETATM   23  O   UNK N   1      29.905  43.593  62.128  0.00  0.00    -0.311 OA
BRANCH  23  24
HETATM   24  C   UNK N   1      30.974  42.865  62.554  0.00  0.00     0.293 C 
HETATM   25  O   UNK N   1      31.092  42.567  63.733  0.00  0.00    -0.259 OA
BRANCH  24  26
HETATM   26  C   UNK N   1      32.019  42.471  61.582  0.00  0.00     0.039 A 
HETATM   27  C   UNK N   1      33.104  43.327  61.313  0.00  0.00     0.017 A 
HETATM   28  C   UNK N   1      34.085  42.949  60.392  0.00  0.00     0.001 A 
HETATM   29  C   UNK N   1      33.993  41.719  59.736  0.00  0.00     0.000 A 
HETATM   30  C   UNK N   1      32.921  40.864  59.999  0.00  0.00     0.001 A 
HETATM   31  C   UNK N   1      31.936  41.237  60.916  0.00  0.00     0.017 A 
ENDBRANCH  24  26
ENDBRANCH  23  24
ENDBRANCH  11  23
BRANCH   9  32
HETATM   32  O   UNK N   1      28.485  46.143  60.425  0.00  0.00    -0.302 OA
BRANCH  32  33
HETATM   33  C   UNK N   1      28.526  47.282  61.170  0.00  0.00     0.256 C 
HETATM   34  O   UNK N   1      27.634  48.116  61.095  0.00  0.00    -0.266 OA
HETATM   35  C   UNK N   1      29.679  47.511  62.091  0.00  0.00     0.126 C 
ENDBRANCH  32  33
ENDBRANCH   9  32
BRANCH  17  36
HETATM   36  O   UNK N   1      29.290  40.720  58.053  0.00  0.00    -0.309 OA
BRANCH  36  37
HETATM   37  C   UNK N   1      28.786  39.965  59.064  0.00  0.00     0.255 C 
HETATM   38  O   UNK N   1      29.463  39.103  59.606  0.00  0.00    -0.266 OA
HETATM   39  C   UNK N   1      27.373  40.182  59.493  0.00  0.00     0.126 C 
ENDBRANCH  36  37
ENDBRANCH  17  36
BRANCH  18  40
HETATM   40  O   UNK N   1      29.622  41.279  55.525  0.00  0.00    -0.306 OA
BRANCH  40  41
HETATM   41  C   UNK N   1      30.319  41.620  54.411  0.00  0.00     0.255 C 
HETATM   42  O   UNK N   1      31.541  41.589  54.401  0.00  0.00    -0.266 OA
HETATM   43  C   UNK N   1      29.569  42.000  53.175  0.00  0.00     0.126 C 
ENDBRANCH  40  41
ENDBRANCH  18  40
TORSDOF 9
ENDMDL
MODEL 6
REMARK VINA RESULT:      -4.4      2.558      6.662
REMARK  9 active torsions:
REMARK  status: ('A' for Active; 'I' for Inactive)
REMARK    1  A    between atoms: C_9  and  O_10 
REMARK    2  A    between atoms: O_10  and  C_11 
REMARK    3  A    between atoms: C_15  and  O_16 
REMARK    4  A    between atoms: O_16  and  C_17 
REMARK    5  A    between atoms: C_17  and  C_19 
REMARK    6  A    between atoms: C_30  and  O_31 
REMARK    7  A    between atoms: O_31  and  C_32 
REMARK    8  A    between atoms: C_35  and  O_36 
REMARK    9  A    between atoms: O_36  and  C_37 
ROOT
HETATM    1  O   UNK N   1      27.644  38.519  63.277  0.00  0.00    -0.294 OA
HETATM    2  C   UNK N   1      28.037  37.882  62.309  0.00  0.00     0.170 C 
HETATM    3  C   UNK N   1      27.015  37.207  61.365  0.00  0.00     0.033 C 
HETATM    4  C   UNK N   1      27.412  37.505  59.910  0.00  0.00    -0.013 C 
HETATM    5  C   UNK N   1      26.711  38.212  59.006  0.00  0.00    -0.018 C 
HETATM    6  C   UNK N   1      27.312  38.463  57.638  0.00  0.00     0.077 C 
HETATM    7  C   UNK N   1      27.313  39.944  57.313  0.00  0.00     0.170 C 
HETATM    8  O   UNK N   1      26.239  40.506  57.139  0.00  0.00    -0.294 OA
HETATM    9  C   UNK N   1      28.623  40.736  57.151  0.00  0.00     0.141 C 
HETATM   10  C   UNK N   1      29.265  41.017  58.563  0.00  0.00     0.081 C 
HETATM   11  C   UNK N   1      29.609  42.521  58.560  0.00  0.00     0.147 C 
HETATM   12  C   UNK N   1      28.474  43.142  57.739  0.00  0.00     0.015 C 
HETATM   13  C   UNK N   1      28.393  42.168  56.568  0.00  0.00     0.054 C 
HETATM   14  C   UNK N   1      27.151  43.274  58.510  0.00  0.00     0.012 C 
HETATM   15  C   UNK N   1      30.486  40.179  58.964  0.00  0.00    -0.011 C 
HETATM   16  C   UNK N   1      30.689  39.526  60.148  0.00  0.00    -0.055 C 
HETATM   17  C   UNK N   1      29.656  39.480  61.270  0.00  0.00     0.197 C 
HETATM   18  C   UNK N   1      29.486  38.057  61.869  0.00  0.00     0.236 C 
HETATM   19  C   UNK N   1      32.031  38.865  60.386  0.00  0.00     0.046 C 
HETATM   20  C   UNK N   1      26.534  37.676  56.580  0.00  0.00     0.022 C 
HETATM   21  C   UNK N   1      27.064  35.684  61.569  0.00  0.00     0.027 C 
HETATM   22  C   UNK N   1      25.583  37.697  61.691  0.00  0.00     0.027 C 
ENDROOT
BRANCH  11  23
HETATM   23  O   UNK N   1      30.808  42.737  57.894  0.00  0.00    -0.311 OA
BRANCH  23  24
HETATM   24  C   UNK N   1      31.609  43.820  58.095  0.00  0.00     0.293 C 
HETATM   25  O   UNK N   1      32.824  43.718  58.004  0.00  0.00    -0.259 OA
BRANCH  24  26
HETATM   26  C   UNK N   1      31.000  45.116  58.467  0.00  0.00     0.039 A 
HETATM   27  C   UNK N   1      30.606  45.366  59.796  0.00  0.00     0.017 A 
HETATM   28  C   UNK N   1      30.028  46.592  60.138  0.00  0.00     0.001 A 
HETATM   29  C   UNK N   1      29.842  47.575  59.164  0.00  0.00     0.000 A 
HETATM   30  C   UNK N   1      30.232  47.335  57.844  0.00  0.00     0.001 A 
HETATM   31  C   UNK N   1      30.807  46.111  57.495  0.00  0.00     0.017 A 
ENDBRANCH  24  26
ENDBRANCH  23  24
ENDBRANCH  11  23
BRANCH   9  32
HETATM   32  O   UNK N   1      29.503  40.047  56.319  0.00  0.00    -0.302 OA
BRANCH  32  33
HETATM   33  C   UNK N   1      29.636  40.239  54.978  0.00  0.00     0.256 C 
HETATM   34  O   UNK N   1      30.629  40.784  54.515  0.00  0.00    -0.266 OA
HETATM   35  C   UNK N   1      28.553  39.771  54.062  0.00  0.00     0.126 C 
ENDBRANCH  32  33
ENDBRANCH   9  32
BRANCH  17  36
HETATM   36  O   UNK N   1      30.036  40.374  62.260  0.00  0.00    -0.309 OA
BRANCH  36  37
HETATM   37  C   UNK N   1      29.971  41.728  62.168  0.00  0.00     0.255 C 
HETATM   38  O   UNK N   1      28.896  42.307  62.107  0.00  0.00    -0.266 OA
HETATM   39  C   UNK N   1      31.243  42.510  62.115  0.00  0.00     0.126 C 
ENDBRANCH  36  37
ENDBRANCH  17  36
BRANCH  18  40
HETATM   40  O   UNK N   1      30.383  37.870  62.911  0.00  0.00    -0.306 OA
BRANCH  40  41
HETATM   41  C   UNK N   1      31.041  36.714  63.175  0.00  0.00     0.255 C 
HETATM   42  O   UNK N   1      31.704  36.587  64.195  0.00  0.00    -0.266 OA
HETATM   43  C   UNK N   1      30.917  35.573  62.215  0.00  0.00     0.126 C 
ENDBRANCH  40  41
ENDBRANCH  18  40
TORSDOF 9
ENDMDL
MODEL 7
REMARK VINA RESULT:      -4.4      2.394      6.751
REMARK  9 active torsions:
REMARK  status: ('A' for Active; 'I' for Inactive)
REMARK    1  A    between atoms: C_9  and  O_10 
REMARK    2  A    between atoms: O_10  and  C_11 
REMARK    3  A    between atoms: C_15  and  O_16 
REMARK    4  A    between atoms: O_16  and  C_17 
REMARK    5  A    between atoms: C_17  and  C_19 
REMARK    6  A    between atoms: C_30  and  O_31 
REMARK    7  A    between atoms: O_31  and  C_32 
REMARK    8  A    between atoms: C_35  and  O_36 
REMARK    9  A    between atoms: O_36  and  C_37 
ROOT
HETATM    1  O   UNK N   1      27.123  38.266  62.356  0.00  0.00    -0.294 OA
HETATM    2  C   UNK N   1      27.828  37.826  61.458  0.00  0.00     0.170 C 
HETATM    3  C   UNK N   1      27.193  36.991  60.322  0.00  0.00     0.033 C 
HETATM    4  C   UNK N   1      27.739  37.492  58.975  0.00  0.00    -0.013 C 
HETATM    5  C   UNK N   1      27.042  38.068  57.979  0.00  0.00    -0.018 C 
HETATM    6  C   UNK N   1      27.779  38.567  56.754  0.00  0.00     0.077 C 
HETATM    7  C   UNK N   1      27.449  40.021  56.481  0.00  0.00     0.170 C 
HETATM    8  O   UNK N   1      26.311  40.308  56.130  0.00  0.00    -0.294 OA
HETATM    9  C   UNK N   1      28.514  41.127  56.588  0.00  0.00     0.141 C 
HETATM   10  C   UNK N   1      28.811  41.451  58.101  0.00  0.00     0.081 C 
HETATM   11  C   UNK N   1      28.746  42.988  58.209  0.00  0.00     0.147 C 
HETATM   12  C   UNK N   1      27.645  43.365  57.213  0.00  0.00     0.015 C 
HETATM   13  C   UNK N   1      28.021  42.497  56.017  0.00  0.00     0.054 C 
HETATM   14  C   UNK N   1      26.222  43.100  57.731  0.00  0.00     0.012 C 
HETATM   15  C   UNK N   1      30.122  40.917  58.695  0.00  0.00    -0.011 C 
HETATM   16  C   UNK N   1      30.285  40.246  59.875  0.00  0.00    -0.055 C 
HETATM   17  C   UNK N   1      29.124  39.855  60.785  0.00  0.00     0.197 C 
HETATM   18  C   UNK N   1      29.233  38.393  61.299  0.00  0.00     0.236 C 
HETATM   19  C   UNK N   1      31.692  39.928  60.334  0.00  0.00     0.046 C 
HETATM   20  C   UNK N   1      27.426  37.695  55.547  0.00  0.00     0.022 C 
HETATM   21  C   UNK N   1      27.602  35.519  60.484  0.00  0.00     0.027 C 
HETATM   22  C   UNK N   1      25.649  37.078  60.394  0.00  0.00     0.027 C 
ENDROOT
BRANCH  11  23
HETATM   23  O   UNK N   1      29.941  43.550  57.782  0.00  0.00    -0.311 OA
BRANCH  23  24
HETATM   24  C   UNK N   1      30.708  44.382  58.540  0.00  0.00     0.293 C 
HETATM   25  O   UNK N   1      30.457  45.577  58.597  0.00  0.00    -0.259 OA
BRANCH  24  26
HETATM   26  C   UNK N   1      31.878  43.835  59.263  0.00  0.00     0.039 A 
HETATM   27  C   UNK N   1      31.906  43.825  60.671  0.00  0.00     0.017 A 
HETATM   28  C   UNK N   1      33.016  43.311  61.347  0.00  0.00     0.001 A 
HETATM   29  C   UNK N   1      34.100  42.802  60.629  0.00  0.00     0.000 A 
HETATM   30  C   UNK N   1      34.078  42.807  59.231  0.00  0.00     0.001 A 
HETATM   31  C   UNK N   1      32.974  43.323  58.550  0.00  0.00     0.017 A 
ENDBRANCH  24  26
ENDBRANCH  23  24
ENDBRANCH  11  23
BRANCH   9  32
HETATM   32  O   UNK N   1      29.671  40.749  55.911  0.00  0.00    -0.302 OA
BRANCH  32  33
HETATM   33  C   UNK N   1      30.097  41.261  54.723  0.00  0.00     0.256 C 
HETATM   34  O   UNK N   1      31.178  41.826  54.632  0.00  0.00    -0.266 OA
HETATM   35  C   UNK N   1      29.226  41.128  53.517  0.00  0.00     0.126 C 
ENDBRANCH  32  33
ENDBRANCH   9  32
BRANCH  17  36
HETATM   36  O   UNK N   1      29.085  40.736  61.855  0.00  0.00    -0.309 OA
BRANCH  36  37
HETATM   37  C   UNK N   1      28.180  41.736  62.022  0.00  0.00     0.255 C 
HETATM   38  O   UNK N   1      27.006  41.493  62.265  0.00  0.00    -0.266 OA
HETATM   39  C   UNK N   1      28.633  43.152  61.877  0.00  0.00     0.126 C 
ENDBRANCH  36  37
ENDBRANCH  17  36
BRANCH  18  40
HETATM   40  O   UNK N   1      29.957  38.357  62.481  0.00  0.00    -0.306 OA
BRANCH  40  41
HETATM   41  C   UNK N   1      30.713  37.312  62.901  0.00  0.00     0.255 C 
HETATM   42  O   UNK N   1      30.882  37.098  64.093  0.00  0.00    -0.266 OA
HETATM   43  C   UNK N   1      31.312  36.395  61.883  0.00  0.00     0.126 C 
ENDBRANCH  40  41
ENDBRANCH  18  40
TORSDOF 9
ENDMDL
MODEL 8
REMARK VINA RESULT:      -4.3      2.256      7.588
REMARK  9 active torsions:
REMARK  status: ('A' for Active; 'I' for Inactive)
REMARK    1  A    between atoms: C_9  and  O_10 
REMARK    2  A    between atoms: O_10  and  C_11 
REMARK    3  A    between atoms: C_15  and  O_16 
REMARK    4  A    between atoms: O_16  and  C_17 
REMARK    5  A    between atoms: C_17  and  C_19 
REMARK    6  A    between atoms: C_30  and  O_31 
REMARK    7  A    between atoms: O_31  and  C_32 
REMARK    8  A    between atoms: C_35  and  O_36 
REMARK    9  A    between atoms: O_36  and  C_37 
ROOT
HETATM    1  O   UNK N   1      26.661  40.282  55.420  0.00  0.00    -0.294 OA
HETATM    2  C   UNK N   1      27.883  40.346  55.407  0.00  0.00     0.170 C 
HETATM    3  C   UNK N   1      28.580  41.643  54.938  0.00  0.00     0.033 C 
HETATM    4  C   UNK N   1      29.696  41.995  55.935  0.00  0.00    -0.013 C 
HETATM    5  C   UNK N   1      29.769  43.083  56.721  0.00  0.00    -0.018 C 
HETATM    6  C   UNK N   1      30.918  43.211  57.700  0.00  0.00     0.077 C 
HETATM    7  C   UNK N   1      30.405  43.461  59.105  0.00  0.00     0.170 C 
HETATM    8  O   UNK N   1      29.850  44.526  59.345  0.00  0.00    -0.294 OA
HETATM    9  C   UNK N   1      30.607  42.435  60.234  0.00  0.00     0.141 C 
HETATM   10  C   UNK N   1      29.611  41.228  60.056  0.00  0.00     0.081 C 
HETATM   11  C   UNK N   1      28.964  41.026  61.442  0.00  0.00     0.147 C 
HETATM   12  C   UNK N   1      28.856  42.451  61.992  0.00  0.00     0.015 C 
HETATM   13  C   UNK N   1      30.232  43.007  61.641  0.00  0.00     0.054 C 
HETATM   14  C   UNK N   1      27.702  43.265  61.385  0.00  0.00     0.012 C 
HETATM   15  C   UNK N   1      30.187  39.908  59.526  0.00  0.00    -0.011 C 
HETATM   16  C   UNK N   1      29.686  39.131  58.518  0.00  0.00    -0.055 C 
HETATM   17  C   UNK N   1      28.460  39.513  57.693  0.00  0.00     0.197 C 
HETATM   18  C   UNK N   1      28.669  39.287  56.171  0.00  0.00     0.236 C 
HETATM   19  C   UNK N   1      30.342  37.793  58.246  0.00  0.00     0.046 C 
HETATM   20  C   UNK N   1      31.853  44.339  57.256  0.00  0.00     0.022 C 
HETATM   21  C   UNK N   1      29.227  41.403  53.564  0.00  0.00     0.027 C 
HETATM   22  C   UNK N   1      27.545  42.785  54.795  0.00  0.00     0.027 C 
ENDROOT
BRANCH  11  23
HETATM   23  O   UNK N   1      29.811  40.296  62.264  0.00  0.00    -0.311 OA
BRANCH  23  24
HETATM   24  C   UNK N   1      29.439  39.176  62.944  0.00  0.00     0.293 C 
HETATM   25  O   UNK N   1      29.219  39.224  64.146  0.00  0.00    -0.259 OA
BRANCH  24  26
HETATM   26  C   UNK N   1      29.341  37.887  62.223  0.00  0.00     0.039 A 
HETATM   27  C   UNK N   1      30.447  37.017  62.162  0.00  0.00     0.017 A 
HETATM   28  C   UNK N   1      30.348  35.804  61.476  0.00  0.00     0.001 A 
HETATM   29  C   UNK N   1      29.151  35.447  60.852  0.00  0.00     0.000 A 
HETATM   30  C   UNK N   1      28.048  36.304  60.910  0.00  0.00     0.001 A 
HETATM   31  C   UNK N   1      28.142  37.520  61.591  0.00  0.00     0.017 A 
ENDBRANCH  24  26
ENDBRANCH  23  24
ENDBRANCH  11  23
BRANCH   9  32
HETATM   32  O   UNK N   1      31.931  42.004  60.263  0.00  0.00    -0.302 OA
BRANCH  32  33
HETATM   33  C   UNK N   1      33.001  42.757  60.642  0.00  0.00     0.256 C 
HETATM   34  O   UNK N   1      33.044  43.276  61.749  0.00  0.00    -0.266 OA
HETATM   35  C   UNK N   1      34.135  42.945  59.690  0.00  0.00     0.126 C 
ENDBRANCH  32  33
ENDBRANCH   9  32
BRANCH  17  36
HETATM   36  O   UNK N   1      27.376  38.774  58.143  0.00  0.00    -0.309 OA
BRANCH  36  37
HETATM   37  C   UNK N   1      26.304  39.271  58.812  0.00  0.00     0.255 C 
HETATM   38  O   UNK N   1      25.475  38.529  59.320  0.00  0.00    -0.266 OA
HETATM   39  C   UNK N   1      26.130  40.752  58.900  0.00  0.00     0.126 C 
ENDBRANCH  36  37
ENDBRANCH  17  36
BRANCH  18  40
HETATM   40  O   UNK N   1      28.295  37.997  55.826  0.00  0.00    -0.306 OA
BRANCH  40  41
HETATM   41  C   UNK N   1      28.734  37.322  54.734  0.00  0.00     0.255 C 
HETATM   42  O   UNK N   1      27.994  37.118  53.782  0.00  0.00    -0.266 OA
HETATM   43  C   UNK N   1      30.156  36.861  54.690  0.00  0.00     0.126 C 
ENDBRANCH  40  41
ENDBRANCH  18  40
TORSDOF 9
ENDMDL
MODEL 9
REMARK VINA RESULT:      -4.2      2.295      6.591
REMARK  9 active torsions:
REMARK  status: ('A' for Active; 'I' for Inactive)
REMARK    1  A    between atoms: C_9  and  O_10 
REMARK    2  A    between atoms: O_10  and  C_11 
REMARK    3  A    between atoms: C_15  and  O_16 
REMARK    4  A    between atoms: O_16  and  C_17 
REMARK    5  A    between atoms: C_17  and  C_19 
REMARK    6  A    between atoms: C_30  and  O_31 
REMARK    7  A    between atoms: O_31  and  C_32 
REMARK    8  A    between atoms: C_35  and  O_36 
REMARK    9  A    between atoms: O_36  and  C_37 
ROOT
HETATM    1  O   UNK N   1      28.137  39.054  62.163  0.00  0.00    -0.294 OA
HETATM    2  C   UNK N   1      27.473  40.035  61.854  0.00  0.00     0.170 C 
HETATM    3  C   UNK N   1      27.481  41.286  62.762  0.00  0.00     0.033 C 
HETATM    4  C   UNK N   1      27.663  42.535  61.885  0.00  0.00    -0.013 C 
HETATM    5  C   UNK N   1      28.699  43.392  61.898  0.00  0.00    -0.018 C 
HETATM    6  C   UNK N   1      28.731  44.527  60.895  0.00  0.00     0.077 C 
HETATM    7  C   UNK N   1      30.035  44.525  60.121  0.00  0.00     0.170 C 
HETATM    8  O   UNK N   1      31.071  44.790  60.719  0.00  0.00    -0.294 OA
HETATM    9  C   UNK N   1      30.078  44.249  58.608  0.00  0.00     0.141 C 
HETATM   10  C   UNK N   1      29.881  42.710  58.331  0.00  0.00     0.081 C 
HETATM   11  C   UNK N   1      31.007  42.326  57.348  0.00  0.00     0.147 C 
HETATM   12  C   UNK N   1      32.177  43.210  57.790  0.00  0.00     0.015 C 
HETATM   13  C   UNK N   1      31.478  44.552  57.979  0.00  0.00     0.054 C 
HETATM   14  C   UNK N   1      32.886  42.712  59.059  0.00  0.00     0.012 C 
HETATM   15  C   UNK N   1      28.515  42.256  57.800  0.00  0.00    -0.011 C 
HETATM   16  C   UNK N   1      27.750  41.220  58.259  0.00  0.00    -0.055 C 
HETATM   17  C   UNK N   1      28.131  40.365  59.465  0.00  0.00     0.197 C 
HETATM   18  C   UNK N   1      26.938  40.126  60.430  0.00  0.00     0.236 C 
HETATM   19  C   UNK N   1      26.491  40.861  57.499  0.00  0.00     0.046 C 
HETATM   20  C   UNK N   1      28.530  45.861  61.616  0.00  0.00     0.022 C 
HETATM   21  C   UNK N   1      26.126  41.401  63.479  0.00  0.00     0.027 C 
HETATM   22  C   UNK N   1      28.590  41.160  63.835  0.00  0.00     0.027 C 
ENDROOT
BRANCH  11  23
HETATM   23  O   UNK N   1      30.652  42.676  56.053  0.00  0.00    -0.311 OA
BRANCH  23  24
HETATM   24  C   UNK N   1      30.717  41.830  54.987  0.00  0.00     0.293 C 
HETATM   25  O   UNK N   1      31.670  41.866  54.224  0.00  0.00    -0.259 OA
BRANCH  24  26
HETATM   26  C   UNK N   1      29.601  40.891  54.736  0.00  0.00     0.039 A 
HETATM   27  C   UNK N   1      28.524  41.265  53.909  0.00  0.00     0.017 A 
HETATM   28  C   UNK N   1      27.472  40.374  53.680  0.00  0.00     0.001 A 
HETATM   29  C   UNK N   1      27.487  39.107  54.266  0.00  0.00     0.000 A 
HETATM   30  C   UNK N   1      28.553  38.727  55.086  0.00  0.00     0.001 A 
HETATM   31  C   UNK N   1      29.606  39.614  55.322  0.00  0.00     0.017 A 
ENDBRANCH  24  26
ENDBRANCH  23  24
ENDBRANCH  11  23
BRANCH   9  32
HETATM   32  O   UNK N   1      29.116  45.012  57.951  0.00  0.00    -0.302 OA
BRANCH  32  33
HETATM   33  C   UNK N   1      28.999  46.368  58.018  0.00  0.00     0.256 C 
HETATM   34  O   UNK N   1      27.931  46.895  58.298  0.00  0.00    -0.266 OA
HETATM   35  C   UNK N   1      30.197  47.217  57.746  0.00  0.00     0.126 C 
ENDBRANCH  32  33
ENDBRANCH   9  32
BRANCH  17  36
HETATM   36  O   UNK N   1      28.629  39.154  59.009  0.00  0.00    -0.309 OA
BRANCH  36  37
HETATM   37  C   UNK N   1      29.935  38.780  59.024  0.00  0.00     0.255 C 
HETATM   38  O   UNK N   1      30.336  37.853  58.334  0.00  0.00    -0.266 OA
HETATM   39  C   UNK N   1      30.883  39.504  59.923  0.00  0.00     0.126 C 
ENDBRANCH  36  37
ENDBRANCH  17  36
BRANCH  18  40
HETATM   40  O   UNK N   1      26.241  38.988  60.051  0.00  0.00    -0.306 OA
BRANCH  40  41
HETATM   41  C   UNK N   1      24.928  38.759  60.300  0.00  0.00     0.255 C 
HETATM   42  O   UNK N   1      24.524  37.634  60.558  0.00  0.00    -0.266 OA
HETATM   43  C   UNK N   1      23.976  39.913  60.292  0.00  0.00     0.126 C 
ENDBRANCH  40  41
ENDBRANCH  18  40
TORSDOF 9
ENDMDL
