MODEL 1
REMARK VINA RESULT:      -5.5      0.000      0.000
REMARK  9 active torsions:
REMARK  status: ('A' for Active; 'I' for Inactive)
REMARK    1  A    between atoms: C_2  and  O_3 
REMARK    2  A    between atoms: C_2  and  C_36 
REMARK    3  A    between atoms: O_3  and  C_4 
REMARK    4  A    between atoms: C_6  and  O_7 
REMARK    5  A    between atoms: C_9  and  O_10 
REMARK    6  A    between atoms: O_10  and  C_11 
REMARK    7  A    between atoms: C_18  and  O_19 
REMARK    8  A    between atoms: O_19  and  C_20 
REMARK    9  A    between atoms: C_24  and  O_25 
ROOT
HETATM    1  C   UNK N   1      31.539  41.662  60.565  0.00  0.00     0.146 C 
HETATM    2  C   UNK N   1      30.396  41.287  59.595  0.00  0.00     0.075 C 
HETATM    3  C   UNK N   1      29.357  40.539  60.505  0.00  0.00     0.095 C 
HETATM    4  C   UNK N   1      29.037  39.076  60.059  0.00  0.00     0.174 C 
HETATM    5  C   UNK N   1      28.194  38.927  58.766  0.00  0.00     0.036 C 
HETATM    6  C   UNK N   1      28.949  39.157  57.465  0.00  0.00    -0.023 C 
HETATM    7  C   UNK N   1      28.472  40.011  56.541  0.00  0.00    -0.019 C 
HETATM    8  C   UNK N   1      28.987  40.145  55.101  0.00  0.00    -0.003 C 
HETATM    9  C   UNK N   1      29.270  41.653  54.758  0.00  0.00     0.146 C 
HETATM   10  C   UNK N   1      30.636  42.241  55.199  0.00  0.00     0.070 C 
HETATM   11  C   UNK N   1      31.033  42.186  56.686  0.00  0.00     0.149 C 
HETATM   12  C   UNK N   1      30.090  42.936  57.619  0.00  0.00    -0.059 C 
HETATM   13  C   UNK N   1      29.826  42.534  58.892  0.00  0.00    -0.012 C 
HETATM   14  C   UNK N   1      29.549  44.280  57.168  0.00  0.00     0.046 C 
HETATM   15  C   UNK N   1      30.200  39.243  54.761  0.00  0.00     0.021 C 
HETATM   16  C   UNK N   1      27.800  39.649  54.233  0.00  0.00     0.021 C 
HETATM   17  C   UNK N   1      27.629  37.499  58.697  0.00  0.00     0.017 C 
HETATM   18  C   UNK N   1      30.025  40.525  61.917  0.00  0.00     0.048 C 
HETATM   19  C   UNK N   1      30.925  41.754  61.963  0.00  0.00     0.015 C 
HETATM   20  C   UNK N   1      30.171  43.054  62.283  0.00  0.00     0.012 C 
ENDROOT
BRANCH   1  21
HETATM   21  O   UNK N   1      32.224  42.789  60.162  0.00  0.00    -0.311 OA
BRANCH  21  22
HETATM   22  C   UNK N   1      33.565  42.872  59.986  0.00  0.00     0.293 C 
HETATM   23  O   UNK N   1      34.097  42.386  58.997  0.00  0.00    -0.259 OA
BRANCH  22  24
HETATM   24  C   UNK N   1      34.370  43.590  60.997  0.00  0.00     0.039 A 
HETATM   25  C   UNK N   1      33.850  43.865  62.276  0.00  0.00     0.017 A 
HETATM   26  C   UNK N   1      34.629  44.545  63.218  0.00  0.00     0.001 A 
HETATM   27  C   UNK N   1      35.925  44.956  62.892  0.00  0.00     0.000 A 
HETATM   28  C   UNK N   1      36.447  44.686  61.625  0.00  0.00     0.001 A 
HETATM   29  C   UNK N   1      35.676  44.004  60.682  0.00  0.00     0.017 A 
ENDBRANCH  22  24
ENDBRANCH  21  22
ENDBRANCH   1  21
BRANCH   3  30
HETATM   30  O   UNK N   1      28.163  41.288  60.583  0.00  0.00    -0.386 OA
HETATM   31  H   UNK N   1      27.796  41.200  61.501  0.00  0.00     0.210 HD
ENDBRANCH   3  30
BRANCH   4  32
HETATM   32  O   UNK N   1      30.212  38.346  59.924  0.00  0.00    -0.313 OA
BRANCH  32  33
HETATM   33  C   UNK N   1      30.706  37.464  60.830  0.00  0.00     0.255 C 
HETATM   34  O   UNK N   1      31.880  37.495  61.167  0.00  0.00    -0.266 OA
HETATM   35  C   UNK N   1      29.788  36.441  61.417  0.00  0.00     0.126 C 
ENDBRANCH  32  33
ENDBRANCH   4  32
BRANCH  11  36
HETATM   36  O   UNK N   1      32.299  42.780  56.828  0.00  0.00    -0.391 OA
HETATM   37  H   UNK N   1      32.939  42.264  56.272  0.00  0.00     0.210 HD
ENDBRANCH  11  36
BRANCH   9  38
HETATM   38  O   UNK N   1      29.199  41.826  53.382  0.00  0.00    -0.315 OA
BRANCH  38  39
HETATM   39  C   UNK N   1      28.461  42.790  52.767  0.00  0.00     0.255 C 
HETATM   40  O   UNK N   1      28.863  43.338  51.749  0.00  0.00    -0.266 OA
HETATM   41  C   UNK N   1      27.146  43.185  53.351  0.00  0.00     0.126 C 
ENDBRANCH  38  39
ENDBRANCH   9  38
TORSDOF 9
ENDMDL
MODEL 2
REMARK VINA RESULT:      -5.3     18.476     22.538
REMARK  9 active torsions:
REMARK  status: ('A' for Active; 'I' for Inactive)
REMARK    1  A    between atoms: C_2  and  O_3 
REMARK    2  A    between atoms: C_2  and  C_36 
REMARK    3  A    between atoms: O_3  and  C_4 
REMARK    4  A    between atoms: C_6  and  O_7 
REMARK    5  A    between atoms: C_9  and  O_10 
REMARK    6  A    between atoms: O_10  and  C_11 
REMARK    7  A    between atoms: C_18  and  O_19 
REMARK    8  A    between atoms: O_19  and  C_20 
REMARK    9  A    between atoms: C_24  and  O_25 
ROOT
HETATM    1  C   UNK N   1      50.209  49.533  60.029  0.00  0.00     0.146 C 
HETATM    2  C   UNK N   1      50.425  51.052  59.844  0.00  0.00     0.075 C 
HETATM    3  C   UNK N   1      50.173  51.648  61.275  0.00  0.00     0.095 C 
HETATM    4  C   UNK N   1      49.027  52.707  61.345  0.00  0.00     0.174 C 
HETATM    5  C   UNK N   1      49.329  54.081  60.694  0.00  0.00     0.036 C 
HETATM    6  C   UNK N   1      49.261  54.112  59.174  0.00  0.00    -0.023 C 
HETATM    7  C   UNK N   1      50.280  54.617  58.455  0.00  0.00    -0.019 C 
HETATM    8  C   UNK N   1      50.241  54.938  56.955  0.00  0.00    -0.003 C 
HETATM    9  C   UNK N   1      51.481  54.306  56.224  0.00  0.00     0.146 C 
HETATM   10  C   UNK N   1      51.381  52.815  55.810  0.00  0.00     0.070 C 
HETATM   11  C   UNK N   1      51.086  51.753  56.885  0.00  0.00     0.149 C 
HETATM   12  C   UNK N   1      52.131  51.668  57.991  0.00  0.00    -0.059 C 
HETATM   13  C   UNK N   1      51.828  51.352  59.280  0.00  0.00    -0.012 C 
HETATM   14  C   UNK N   1      53.595  51.775  57.608  0.00  0.00     0.046 C 
HETATM   15  C   UNK N   1      48.911  54.569  56.249  0.00  0.00     0.021 C 
HETATM   16  C   UNK N   1      50.364  56.484  56.901  0.00  0.00     0.021 C 
HETATM   17  C   UNK N   1      48.303  55.111  61.196  0.00  0.00     0.017 C 
HETATM   18  C   UNK N   1      49.798  50.406  62.146  0.00  0.00     0.048 C 
HETATM   19  C   UNK N   1      50.497  49.218  61.497  0.00  0.00     0.015 C 
HETATM   20  C   UNK N   1      51.980  49.095  61.881  0.00  0.00     0.012 C 
ENDROOT
BRANCH   1  21
HETATM   21  O   UNK N   1      50.933  48.783  59.126  0.00  0.00    -0.311 OA
BRANCH  21  22
HETATM   22  C   UNK N   1      50.730  47.471  58.853  0.00  0.00     0.293 C 
HETATM   23  O   UNK N   1      51.307  46.604  59.494  0.00  0.00    -0.259 OA
BRANCH  22  24
HETATM   24  C   UNK N   1      49.771  47.109  57.787  0.00  0.00     0.039 A 
HETATM   25  C   UNK N   1      50.155  47.114  56.434  0.00  0.00     0.017 A 
HETATM   26  C   UNK N   1      49.231  46.767  55.442  0.00  0.00     0.001 A 
HETATM   27  C   UNK N   1      47.923  46.418  55.791  0.00  0.00     0.000 A 
HETATM   28  C   UNK N   1      47.537  46.410  57.133  0.00  0.00     0.001 A 
HETATM   29  C   UNK N   1      48.455  46.751  58.128  0.00  0.00     0.017 A 
ENDBRANCH  22  24
ENDBRANCH  21  22
ENDBRANCH   1  21
BRANCH   3  30
HETATM   30  O   UNK N   1      51.370  52.203  61.779  0.00  0.00    -0.386 OA
HETATM   31  H   UNK N   1      51.166  52.668  62.632  0.00  0.00     0.210 HD
ENDBRANCH   3  30
BRANCH   4  32
HETATM   32  O   UNK N   1      47.859  52.189  60.797  0.00  0.00    -0.313 OA
BRANCH  32  33
HETATM   33  C   UNK N   1      46.656  52.112  61.424  0.00  0.00     0.255 C 
HETATM   34  O   UNK N   1      46.547  51.573  62.516  0.00  0.00    -0.266 OA
HETATM   35  C   UNK N   1      45.455  52.697  60.757  0.00  0.00     0.126 C 
ENDBRANCH  32  33
ENDBRANCH   4  32
BRANCH  11  36
HETATM   36  O   UNK N   1      51.049  50.492  56.266  0.00  0.00    -0.391 OA
HETATM   37  H   UNK N   1      51.200  50.628  55.294  0.00  0.00     0.210 HD
ENDBRANCH  11  36
BRANCH   9  38
HETATM   38  O   UNK N   1      51.732  55.017  55.058  0.00  0.00    -0.315 OA
BRANCH  38  39
HETATM   39  C   UNK N   1      51.562  54.518  53.804  0.00  0.00     0.255 C 
HETATM   40  O   UNK N   1      52.436  53.849  53.269  0.00  0.00    -0.266 OA
HETATM   41  C   UNK N   1      50.292  54.799  53.072  0.00  0.00     0.126 C 
ENDBRANCH  38  39
ENDBRANCH   9  38
TORSDOF 9
ENDMDL
MODEL 3
REMARK VINA RESULT:      -5.1      3.597      6.919
REMARK  9 active torsions:
REMARK  status: ('A' for Active; 'I' for Inactive)
REMARK    1  A    between atoms: C_2  and  O_3 
REMARK    2  A    between atoms: C_2  and  C_36 
REMARK    3  A    between atoms: O_3  and  C_4 
REMARK    4  A    between atoms: C_6  and  O_7 
REMARK    5  A    between atoms: C_9  and  O_10 
REMARK    6  A    between atoms: O_10  and  C_11 
REMARK    7  A    between atoms: C_18  and  O_19 
REMARK    8  A    between atoms: O_19  and  C_20 
REMARK    9  A    between atoms: C_24  and  O_25 
ROOT
HETATM    1  C   UNK N   1      29.955  47.011  60.080  0.00  0.00     0.146 C 
HETATM    2  C   UNK N   1      29.820  45.606  60.710  0.00  0.00     0.075 C 
HETATM    3  C   UNK N   1      29.692  45.892  62.249  0.00  0.00     0.095 C 
HETATM    4  C   UNK N   1      30.795  45.222  63.129  0.00  0.00     0.174 C 
HETATM    5  C   UNK N   1      30.700  43.682  63.285  0.00  0.00     0.036 C 
HETATM    6  C   UNK N   1      31.170  42.875  62.083  0.00  0.00    -0.023 C 
HETATM    7  C   UNK N   1      30.388  41.916  61.556  0.00  0.00    -0.019 C 
HETATM    8  C   UNK N   1      30.830  40.870  60.524  0.00  0.00    -0.003 C 
HETATM    9  C   UNK N   1      29.819  40.824  59.321  0.00  0.00     0.146 C 
HETATM   10  C   UNK N   1      30.001  41.874  58.195  0.00  0.00     0.070 C 
HETATM   11  C   UNK N   1      29.982  43.372  58.552  0.00  0.00     0.149 C 
HETATM   12  C   UNK N   1      28.679  43.855  59.177  0.00  0.00    -0.059 C 
HETATM   13  C   UNK N   1      28.624  44.839  60.116  0.00  0.00    -0.012 C 
HETATM   14  C   UNK N   1      27.372  43.334  58.611  0.00  0.00     0.046 C 
HETATM   15  C   UNK N   1      32.293  41.022  60.036  0.00  0.00     0.021 C 
HETATM   16  C   UNK N   1      30.751  39.527  61.296  0.00  0.00     0.021 C 
HETATM   17  C   UNK N   1      31.571  43.243  64.473  0.00  0.00     0.017 C 
HETATM   18  C   UNK N   1      29.802  47.447  62.360  0.00  0.00     0.048 C 
HETATM   19  C   UNK N   1      29.282  47.996  61.037  0.00  0.00     0.015 C 
HETATM   20  C   UNK N   1      27.748  48.064  60.963  0.00  0.00     0.012 C 
ENDROOT
BRANCH   1  21
HETATM   21  O   UNK N   1      29.486  47.055  58.784  0.00  0.00    -0.311 OA
BRANCH  21  22
HETATM   22  C   UNK N   1      30.219  47.387  57.693  0.00  0.00     0.293 C 
HETATM   23  O   UNK N   1      31.136  46.671  57.316  0.00  0.00    -0.259 OA
BRANCH  22  24
HETATM   24  C   UNK N   1      29.867  48.615  56.950  0.00  0.00     0.039 A 
HETATM   25  C   UNK N   1      28.541  49.086  56.913  0.00  0.00     0.017 A 
HETATM   26  C   UNK N   1      28.231  50.251  56.204  0.00  0.00     0.001 A 
HETATM   27  C   UNK N   1      29.235  50.951  55.527  0.00  0.00     0.000 A 
HETATM   28  C   UNK N   1      30.552  50.489  55.561  0.00  0.00     0.001 A 
HETATM   29  C   UNK N   1      30.869  49.329  56.270  0.00  0.00     0.017 A 
ENDBRANCH  22  24
ENDBRANCH  21  22
ENDBRANCH   1  21
BRANCH   3  30
HETATM   30  O   UNK N   1      28.414  45.501  62.704  0.00  0.00    -0.386 OA
HETATM   31  H   UNK N   1      28.007  46.263  63.193  0.00  0.00     0.210 HD
ENDBRANCH   3  30
BRANCH   4  32
HETATM   32  O   UNK N   1      32.059  45.555  62.654  0.00  0.00    -0.313 OA
BRANCH  32  33
HETATM   33  C   UNK N   1      33.051  46.133  63.379  0.00  0.00     0.255 C 
HETATM   34  O   UNK N   1      32.850  47.149  64.028  0.00  0.00    -0.266 OA
HETATM   35  C   UNK N   1      34.407  45.507  63.375  0.00  0.00     0.126 C 
ENDBRANCH  32  33
ENDBRANCH   4  32
BRANCH  11  36
HETATM   36  O   UNK N   1      30.162  44.112  57.371  0.00  0.00    -0.391 OA
HETATM   37  H   UNK N   1      30.966  43.755  56.910  0.00  0.00     0.210 HD
ENDBRANCH  11  36
BRANCH   9  38
HETATM   38  O   UNK N   1      29.898  39.580  58.709  0.00  0.00    -0.315 OA
BRANCH  38  39
HETATM   39  C   UNK N   1      29.022  39.130  57.771  0.00  0.00     0.255 C 
HETATM   40  O   UNK N   1      29.412  38.752  56.674  0.00  0.00    -0.266 OA
HETATM   41  C   UNK N   1      27.563  39.106  58.086  0.00  0.00     0.126 C 
ENDBRANCH  38  39
ENDBRANCH   9  38
TORSDOF 9
ENDMDL
MODEL 4
REMARK VINA RESULT:      -5.0      4.427      7.383
REMARK  9 active torsions:
REMARK  status: ('A' for Active; 'I' for Inactive)
REMARK    1  A    between atoms: C_2  and  O_3 
REMARK    2  A    between atoms: C_2  and  C_36 
REMARK    3  A    between atoms: O_3  and  C_4 
REMARK    4  A    between atoms: C_6  and  O_7 
REMARK    5  A    between atoms: C_9  and  O_10 
REMARK    6  A    between atoms: O_10  and  C_11 
REMARK    7  A    between atoms: C_18  and  O_19 
REMARK    8  A    between atoms: O_19  and  C_20 
REMARK    9  A    between atoms: C_24  and  O_25 
ROOT
HETATM    1  C   UNK N   1      29.581  48.418  60.889  0.00  0.00     0.146 C 
HETATM    2  C   UNK N   1      29.734  46.885  61.014  0.00  0.00     0.075 C 
HETATM    3  C   UNK N   1      29.653  46.620  62.560  0.00  0.00     0.095 C 
HETATM    4  C   UNK N   1      30.909  45.917  63.166  0.00  0.00     0.174 C 
HETATM    5  C   UNK N   1      31.096  44.422  62.798  0.00  0.00     0.036 C 
HETATM    6  C   UNK N   1      31.625  44.156  61.397  0.00  0.00    -0.023 C 
HETATM    7  C   UNK N   1      30.992  43.295  60.579  0.00  0.00    -0.019 C 
HETATM    8  C   UNK N   1      31.547  42.748  59.257  0.00  0.00    -0.003 C 
HETATM    9  C   UNK N   1      30.487  42.912  58.107  0.00  0.00     0.146 C 
HETATM   10  C   UNK N   1      30.413  44.288  57.396  0.00  0.00     0.070 C 
HETATM   11  C   UNK N   1      30.153  45.554  58.233  0.00  0.00     0.149 C 
HETATM   12  C   UNK N   1      28.826  45.553  58.984  0.00  0.00    -0.059 C 
HETATM   13  C   UNK N   1      28.656  46.147  60.197  0.00  0.00    -0.012 C 
HETATM   14  C   UNK N   1      27.598  45.014  58.275  0.00  0.00     0.046 C 
HETATM   15  C   UNK N   1      32.928  43.322  58.848  0.00  0.00     0.021 C 
HETATM   16  C   UNK N   1      31.753  41.236  59.536  0.00  0.00     0.021 C 
HETATM   17  C   UNK N   1      32.102  43.787  63.772  0.00  0.00     0.017 C 
HETATM   18  C   UNK N   1      29.494  48.044  63.184  0.00  0.00     0.048 C 
HETATM   19  C   UNK N   1      28.805  48.890  62.120  0.00  0.00     0.015 C 
HETATM   20  C   UNK N   1      27.281  48.692  62.072  0.00  0.00     0.012 C 
ENDROOT
BRANCH   1  21
HETATM   21  O   UNK N   1      29.032  48.796  59.682  0.00  0.00    -0.311 OA
BRANCH  21  22
HETATM   22  C   UNK N   1      29.073  50.045  59.157  0.00  0.00     0.293 C 
HETATM   23  O   UNK N   1      28.848  51.023  59.856  0.00  0.00    -0.259 OA
BRANCH  22  24
HETATM   24  C   UNK N   1      29.428  50.202  57.731  0.00  0.00     0.039 A 
HETATM   25  C   UNK N   1      28.489  50.679  56.797  0.00  0.00     0.017 A 
HETATM   26  C   UNK N   1      28.847  50.821  55.453  0.00  0.00     0.001 A 
HETATM   27  C   UNK N   1      30.138  50.487  55.030  0.00  0.00     0.000 A 
HETATM   28  C   UNK N   1      31.074  50.013  55.951  0.00  0.00     0.001 A 
HETATM   29  C   UNK N   1      30.724  49.873  57.295  0.00  0.00     0.017 A 
ENDBRANCH  22  24
ENDBRANCH  21  22
ENDBRANCH   1  21
BRANCH   3  30
HETATM   30  O   UNK N   1      28.493  45.871  62.857  0.00  0.00    -0.386 OA
HETATM   31  H   UNK N   1      27.918  45.849  62.049  0.00  0.00     0.210 HD
ENDBRANCH   3  30
BRANCH   4  32
HETATM   32  O   UNK N   1      32.062  46.617  62.830  0.00  0.00    -0.313 OA
BRANCH  32  33
HETATM   33  C   UNK N   1      32.990  47.082  63.706  0.00  0.00     0.255 C 
HETATM   34  O   UNK N   1      32.657  47.604  64.760  0.00  0.00    -0.266 OA
HETATM   35  C   UNK N   1      34.438  46.949  63.364  0.00  0.00     0.126 C 
ENDBRANCH  32  33
ENDBRANCH   4  32
BRANCH  11  36
HETATM   36  O   UNK N   1      30.126  46.660  57.367  0.00  0.00    -0.391 OA
HETATM   37  H   UNK N   1      30.305  46.330  56.449  0.00  0.00     0.210 HD
ENDBRANCH  11  36
BRANCH   9  38
HETATM   38  O   UNK N   1      30.746  41.975  57.115  0.00  0.00    -0.315 OA
BRANCH  38  39
HETATM   39  C   UNK N   1      29.899  41.691  56.089  0.00  0.00     0.255 C 
HETATM   40  O   UNK N   1      28.721  41.433  56.299  0.00  0.00    -0.266 OA
HETATM   41  C   UNK N   1      30.420  41.689  54.691  0.00  0.00     0.126 C 
ENDBRANCH  38  39
ENDBRANCH   9  38
TORSDOF 9
ENDMDL
MODEL 5
REMARK VINA RESULT:      -4.9      3.584      7.298
REMARK  9 active torsions:
REMARK  status: ('A' for Active; 'I' for Inactive)
REMARK    1  A    between atoms: C_2  and  O_3 
REMARK    2  A    between atoms: C_2  and  C_36 
REMARK    3  A    between atoms: O_3  and  C_4 
REMARK    4  A    between atoms: C_6  and  O_7 
REMARK    5  A    between atoms: C_9  and  O_10 
REMARK    6  A    between atoms: O_10  and  C_11 
REMARK    7  A    between atoms: C_18  and  O_19 
REMARK    8  A    between atoms: O_19  and  C_20 
REMARK    9  A    between atoms: C_24  and  O_25 
ROOT
HETATM    1  C   UNK N   1      30.169  42.341  60.232  0.00  0.00     0.146 C 
HETATM    2  C   UNK N   1      30.318  43.849  60.537  0.00  0.00     0.075 C 
HETATM    3  C   UNK N   1      31.038  43.884  61.933  0.00  0.00     0.095 C 
HETATM    4  C   UNK N   1      30.246  44.628  63.054  0.00  0.00     0.174 C 
HETATM    5  C   UNK N   1      30.165  46.171  62.922  0.00  0.00     0.036 C 
HETATM    6  C   UNK N   1      29.178  46.686  61.886  0.00  0.00    -0.023 C 
HETATM    7  C   UNK N   1      29.565  47.579  60.957  0.00  0.00    -0.019 C 
HETATM    8  C   UNK N   1      28.630  48.363  60.026  0.00  0.00    -0.003 C 
HETATM    9  C   UNK N   1      29.115  48.248  58.536  0.00  0.00     0.146 C 
HETATM   10  C   UNK N   1      28.691  46.984  57.743  0.00  0.00     0.070 C 
HETATM   11  C   UNK N   1      29.057  45.593  58.291  0.00  0.00     0.149 C 
HETATM   12  C   UNK N   1      30.554  45.345  58.434  0.00  0.00    -0.059 C 
HETATM   13  C   UNK N   1      31.090  44.573  59.418  0.00  0.00    -0.012 C 
HETATM   14  C   UNK N   1      31.474  45.842  57.335  0.00  0.00     0.046 C 
HETATM   15  C   UNK N   1      27.128  48.005  60.169  0.00  0.00     0.021 C 
HETATM   16  C   UNK N   1      28.788  49.835  60.491  0.00  0.00     0.021 C 
HETATM   17  C   UNK N   1      29.732  46.769  64.271  0.00  0.00     0.017 C 
HETATM   18  C   UNK N   1      31.204  42.378  62.315  0.00  0.00     0.048 C 
HETATM   19  C   UNK N   1      31.281  41.620  60.996  0.00  0.00     0.015 C 
HETATM   20  C   UNK N   1      32.675  41.656  60.348  0.00  0.00     0.012 C 
ENDROOT
BRANCH   1  21
HETATM   21  O   UNK N   1      30.136  42.078  58.878  0.00  0.00    -0.311 OA
BRANCH  21  22
HETATM   22  C   UNK N   1      29.264  41.244  58.262  0.00  0.00     0.293 C 
HETATM   23  O   UNK N   1      28.439  40.614  58.909  0.00  0.00    -0.259 OA
BRANCH  22  24
HETATM   24  C   UNK N   1      29.310  41.135  56.788  0.00  0.00     0.039 A 
HETATM   25  C   UNK N   1      28.448  40.263  56.098  0.00  0.00     0.017 A 
HETATM   26  C   UNK N   1      28.507  40.177  54.703  0.00  0.00     0.001 A 
HETATM   27  C   UNK N   1      29.426  40.953  53.990  0.00  0.00     0.000 A 
HETATM   28  C   UNK N   1      30.284  41.821  54.669  0.00  0.00     0.001 A 
HETATM   29  C   UNK N   1      30.226  41.914  56.060  0.00  0.00     0.017 A 
ENDBRANCH  22  24
ENDBRANCH  21  22
ENDBRANCH   1  21
BRANCH   3  30
HETATM   30  O   UNK N   1      32.322  44.454  61.794  0.00  0.00    -0.386 OA
HETATM   31  H   UNK N   1      32.968  43.904  62.309  0.00  0.00     0.210 HD
ENDBRANCH   3  30
BRANCH   4  32
HETATM   32  O   UNK N   1      28.959  44.111  63.159  0.00  0.00    -0.313 OA
BRANCH  32  33
HETATM   33  C   UNK N   1      28.402  43.597  64.286  0.00  0.00     0.255 C 
HETATM   34  O   UNK N   1      27.189  43.484  64.395  0.00  0.00    -0.266 OA
HETATM   35  C   UNK N   1      29.295  43.166  65.403  0.00  0.00     0.126 C 
ENDBRANCH  32  33
ENDBRANCH   4  32
BRANCH  11  36
HETATM   36  O   UNK N   1      28.570  44.623  57.399  0.00  0.00    -0.391 OA
HETATM   37  H   UNK N   1      28.073  45.094  56.681  0.00  0.00     0.210 HD
ENDBRANCH  11  36
BRANCH   9  38
HETATM   38  O   UNK N   1      28.638  49.336  57.818  0.00  0.00    -0.315 OA
BRANCH  38  39
HETATM   39  C   UNK N   1      29.248  49.857  56.719  0.00  0.00     0.255 C 
HETATM   40  O   UNK N   1      28.605  50.448  55.862  0.00  0.00    -0.266 OA
HETATM   41  C   UNK N   1      30.723  49.697  56.558  0.00  0.00     0.126 C 
ENDBRANCH  38  39
ENDBRANCH   9  38
TORSDOF 9
ENDMDL
MODEL 6
REMARK VINA RESULT:      -4.9      2.595      3.282
REMARK  9 active torsions:
REMARK  status: ('A' for Active; 'I' for Inactive)
REMARK    1  A    between atoms: C_2  and  O_3 
REMARK    2  A    between atoms: C_2  and  C_36 
REMARK    3  A    between atoms: O_3  and  C_4 
REMARK    4  A    between atoms: C_6  and  O_7 
REMARK    5  A    between atoms: C_9  and  O_10 
REMARK    6  A    between atoms: O_10  and  C_11 
REMARK    7  A    between atoms: C_18  and  O_19 
REMARK    8  A    between atoms: O_19  and  C_20 
REMARK    9  A    between atoms: C_24  and  O_25 
ROOT
HETATM    1  C   UNK N   1      30.084  41.795  59.880  0.00  0.00     0.146 C 
HETATM    2  C   UNK N   1      29.306  40.701  59.114  0.00  0.00     0.075 C 
HETATM    3  C   UNK N   1      28.871  39.690  60.235  0.00  0.00     0.095 C 
HETATM    4  C   UNK N   1      29.392  38.232  60.032  0.00  0.00     0.174 C 
HETATM    5  C   UNK N   1      28.733  37.427  58.883  0.00  0.00     0.036 C 
HETATM    6  C   UNK N   1      29.203  37.787  57.481  0.00  0.00    -0.023 C 
HETATM    7  C   UNK N   1      28.312  38.073  56.514  0.00  0.00    -0.019 C 
HETATM    8  C   UNK N   1      28.629  38.202  55.018  0.00  0.00    -0.003 C 
HETATM    9  C   UNK N   1      28.031  39.537  54.443  0.00  0.00     0.146 C 
HETATM   10  C   UNK N   1      28.864  40.831  54.633  0.00  0.00     0.070 C 
HETATM   11  C   UNK N   1      29.267  41.264  56.055  0.00  0.00     0.149 C 
HETATM   12  C   UNK N   1      28.093  41.547  56.985  0.00  0.00    -0.059 C 
HETATM   13  C   UNK N   1      28.128  41.302  58.323  0.00  0.00    -0.012 C 
HETATM   14  C   UNK N   1      26.893  42.287  56.426  0.00  0.00     0.046 C 
HETATM   15  C   UNK N   1      30.128  38.044  54.659  0.00  0.00     0.021 C 
HETATM   16  C   UNK N   1      27.884  37.002  54.374  0.00  0.00     0.021 C 
HETATM   17  C   UNK N   1      29.040  35.932  59.075  0.00  0.00     0.017 C 
HETATM   18  C   UNK N   1      29.477  40.289  61.545  0.00  0.00     0.048 C 
HETATM   19  C   UNK N   1      29.559  41.793  61.316  0.00  0.00     0.015 C 
HETATM   20  C   UNK N   1      28.225  42.521  61.546  0.00  0.00     0.012 C 
ENDROOT
BRANCH   1  21
HETATM   21  O   UNK N   1      30.030  43.021  59.248  0.00  0.00    -0.311 OA
BRANCH  21  22
HETATM   22  C   UNK N   1      30.988  43.977  59.306  0.00  0.00     0.293 C 
HETATM   23  O   UNK N   1      32.147  43.684  59.563  0.00  0.00    -0.259 OA
BRANCH  22  24
HETATM   24  C   UNK N   1      30.609  45.377  59.019  0.00  0.00     0.039 A 
HETATM   25  C   UNK N   1      30.796  45.932  57.740  0.00  0.00     0.017 A 
HETATM   26  C   UNK N   1      30.429  47.259  57.491  0.00  0.00     0.001 A 
HETATM   27  C   UNK N   1      29.880  48.039  58.513  0.00  0.00     0.000 A 
HETATM   28  C   UNK N   1      29.692  47.494  59.785  0.00  0.00     0.001 A 
HETATM   29  C   UNK N   1      30.051  46.170  60.038  0.00  0.00     0.017 A 
ENDBRANCH  22  24
ENDBRANCH  21  22
ENDBRANCH   1  21
BRANCH   3  30
HETATM   30  O   UNK N   1      27.465  39.685  60.355  0.00  0.00    -0.386 OA
HETATM   31  H   UNK N   1      27.154  38.743  60.371  0.00  0.00     0.210 HD
ENDBRANCH   3  30
BRANCH   4  32
HETATM   32  O   UNK N   1      30.771  38.232  59.856  0.00  0.00    -0.313 OA
BRANCH  32  33
HETATM   33  C   UNK N   1      31.684  37.776  60.752  0.00  0.00     0.255 C 
HETATM   34  O   UNK N   1      32.876  38.015  60.616  0.00  0.00    -0.266 OA
HETATM   35  C   UNK N   1      31.214  36.969  61.916  0.00  0.00     0.126 C 
ENDBRANCH  32  33
ENDBRANCH   4  32
BRANCH  11  36
HETATM   36  O   UNK N   1      30.005  42.457  55.962  0.00  0.00    -0.391 OA
HETATM   37  H   UNK N   1      30.083  42.690  55.001  0.00  0.00     0.210 HD
ENDBRANCH  11  36
BRANCH   9  38
HETATM   38  O   UNK N   1      27.840  39.396  53.075  0.00  0.00    -0.315 OA
BRANCH  38  39
HETATM   39  C   UNK N   1      27.034  40.198  52.327  0.00  0.00     0.255 C 
HETATM   40  O   UNK N   1      27.450  40.738  51.311  0.00  0.00    -0.266 OA
HETATM   41  C   UNK N   1      25.623  40.424  52.761  0.00  0.00     0.126 C 
ENDBRANCH  38  39
ENDBRANCH   9  38
TORSDOF 9
ENDMDL
MODEL 7
REMARK VINA RESULT:      -4.8      2.855      6.834
REMARK  9 active torsions:
REMARK  status: ('A' for Active; 'I' for Inactive)
REMARK    1  A    between atoms: C_2  and  O_3 
REMARK    2  A    between atoms: C_2  and  C_36 
REMARK    3  A    between atoms: O_3  and  C_4 
REMARK    4  A    between atoms: C_6  and  O_7 
REMARK    5  A    between atoms: C_9  and  O_10 
REMARK    6  A    between atoms: O_10  and  C_11 
REMARK    7  A    between atoms: C_18  and  O_19 
REMARK    8  A    between atoms: O_19  and  C_20 
REMARK    9  A    between atoms: C_24  and  O_25 
ROOT
HETATM    1  C   UNK N   1      31.840  43.921  58.898  0.00  0.00     0.146 C 
HETATM    2  C   UNK N   1      30.325  43.692  59.104  0.00  0.00     0.075 C 
HETATM    3  C   UNK N   1      29.652  44.638  58.046  0.00  0.00     0.095 C 
HETATM    4  C   UNK N   1      28.684  45.705  58.651  0.00  0.00     0.174 C 
HETATM    5  C   UNK N   1      27.339  45.168  59.204  0.00  0.00     0.036 C 
HETATM    6  C   UNK N   1      27.420  44.476  60.557  0.00  0.00    -0.023 C 
HETATM    7  C   UNK N   1      26.889  43.253  60.733  0.00  0.00    -0.019 C 
HETATM    8  C   UNK N   1      26.677  42.557  62.084  0.00  0.00    -0.003 C 
HETATM    9  C   UNK N   1      27.259  41.097  62.048  0.00  0.00     0.146 C 
HETATM   10  C   UNK N   1      28.779  40.929  62.307  0.00  0.00     0.070 C 
HETATM   11  C   UNK N   1      29.783  41.681  61.414  0.00  0.00     0.149 C 
HETATM   12  C   UNK N   1      29.709  41.316  59.936  0.00  0.00    -0.059 C 
HETATM   13  C   UNK N   1      29.956  42.206  58.936  0.00  0.00    -0.012 C 
HETATM   14  C   UNK N   1      29.514  39.859  59.563  0.00  0.00     0.046 C 
HETATM   15  C   UNK N   1      27.197  43.351  63.309  0.00  0.00     0.021 C 
HETATM   16  C   UNK N   1      25.133  42.476  62.224  0.00  0.00     0.021 C 
HETATM   17  C   UNK N   1      26.360  46.341  59.372  0.00  0.00     0.017 C 
HETATM   18  C   UNK N   1      30.856  45.353  57.351  0.00  0.00     0.048 C 
HETATM   19  C   UNK N   1      32.028  44.386  57.453  0.00  0.00     0.015 C 
HETATM   20  C   UNK N   1      32.008  43.282  56.383  0.00  0.00     0.012 C 
ENDROOT
BRANCH   1  21
HETATM   21  O   UNK N   1      32.592  42.821  59.252  0.00  0.00    -0.311 OA
BRANCH  21  22
HETATM   22  C   UNK N   1      33.939  42.805  59.404  0.00  0.00     0.293 C 
HETATM   23  O   UNK N   1      34.654  42.253  58.579  0.00  0.00    -0.259 OA
BRANCH  22  24
HETATM   24  C   UNK N   1      34.528  43.500  60.568  0.00  0.00     0.039 A 
HETATM   25  C   UNK N   1      35.811  44.073  60.498  0.00  0.00     0.017 A 
HETATM   26  C   UNK N   1      36.349  44.726  61.612  0.00  0.00     0.001 A 
HETATM   27  C   UNK N   1      35.616  44.808  62.800  0.00  0.00     0.000 A 
HETATM   28  C   UNK N   1      34.342  44.241  62.876  0.00  0.00     0.001 A 
HETATM   29  C   UNK N   1      33.798  43.592  61.767  0.00  0.00     0.017 A 
ENDBRANCH  22  24
ENDBRANCH  21  22
ENDBRANCH   1  21
BRANCH   3  30
HETATM   30  O   UNK N   1      28.972  43.867  57.079  0.00  0.00    -0.386 OA
HETATM   31  H   UNK N   1      29.420  42.985  57.009  0.00  0.00     0.210 HD
ENDBRANCH   3  30
BRANCH   4  32
HETATM   32  O   UNK N   1      29.329  46.432  59.645  0.00  0.00    -0.313 OA
BRANCH  32  33
HETATM   33  C   UNK N   1      29.387  47.786  59.725  0.00  0.00     0.255 C 
HETATM   34  O   UNK N   1      29.270  48.361  60.797  0.00  0.00    -0.266 OA
HETATM   35  C   UNK N   1      29.596  48.575  58.474  0.00  0.00     0.126 C 
ENDBRANCH  32  33
ENDBRANCH   4  32
BRANCH  11  36
HETATM   36  O   UNK N   1      31.083  41.364  61.844  0.00  0.00    -0.391 OA
HETATM   37  H   UNK N   1      31.634  41.189  61.037  0.00  0.00     0.210 HD
ENDBRANCH  11  36
BRANCH   9  38
HETATM   38  O   UNK N   1      26.614  40.327  63.006  0.00  0.00    -0.315 OA
BRANCH  38  39
HETATM   39  C   UNK N   1      26.496  38.973  62.948  0.00  0.00     0.255 C 
HETATM   40  O   UNK N   1      26.706  38.280  63.935  0.00  0.00    -0.266 OA
HETATM   41  C   UNK N   1      26.111  38.327  61.659  0.00  0.00     0.126 C 
ENDBRANCH  38  39
ENDBRANCH   9  38
TORSDOF 9
ENDMDL
MODEL 8
REMARK VINA RESULT:      -4.8      1.974      2.443
REMARK  9 active torsions:
REMARK  status: ('A' for Active; 'I' for Inactive)
REMARK    1  A    between atoms: C_2  and  O_3 
REMARK    2  A    between atoms: C_2  and  C_36 
REMARK    3  A    between atoms: O_3  and  C_4 
REMARK    4  A    between atoms: C_6  and  O_7 
REMARK    5  A    between atoms: C_9  and  O_10 
REMARK    6  A    between atoms: O_10  and  C_11 
REMARK    7  A    between atoms: C_18  and  O_19 
REMARK    8  A    between atoms: O_19  and  C_20 
REMARK    9  A    between atoms: C_24  and  O_25 
ROOT
HETATM    1  C   UNK N   1      29.527  41.894  60.131  0.00  0.00     0.146 C 
HETATM    2  C   UNK N   1      28.883  40.788  59.265  0.00  0.00     0.075 C 
HETATM    3  C   UNK N   1      28.471  39.685  60.305  0.00  0.00     0.095 C 
HETATM    4  C   UNK N   1      29.118  38.285  60.058  0.00  0.00     0.174 C 
HETATM    5  C   UNK N   1      28.589  37.497  58.831  0.00  0.00     0.036 C 
HETATM    6  C   UNK N   1      29.103  37.971  57.480  0.00  0.00    -0.023 C 
HETATM    7  C   UNK N   1      28.246  38.241  56.479  0.00  0.00    -0.019 C 
HETATM    8  C   UNK N   1      28.632  38.478  55.012  0.00  0.00    -0.003 C 
HETATM    9  C   UNK N   1      27.961  39.793  54.473  0.00  0.00     0.146 C 
HETATM   10  C   UNK N   1      28.675  41.135  54.779  0.00  0.00     0.070 C 
HETATM   11  C   UNK N   1      28.964  41.518  56.242  0.00  0.00     0.149 C 
HETATM   12  C   UNK N   1      27.723  41.655  57.115  0.00  0.00    -0.059 C 
HETATM   13  C   UNK N   1      27.704  41.339  58.439  0.00  0.00    -0.012 C 
HETATM   14  C   UNK N   1      26.499  42.330  56.526  0.00  0.00     0.046 C 
HETATM   15  C   UNK N   1      30.157  38.457  54.734  0.00  0.00     0.021 C 
HETATM   16  C   UNK N   1      28.023  37.262  54.265  0.00  0.00     0.021 C 
HETATM   17  C   UNK N   1      29.005  36.023  58.963  0.00  0.00     0.017 C 
HETATM   18  C   UNK N   1      28.954  40.254  61.678  0.00  0.00     0.048 C 
HETATM   19  C   UNK N   1      28.926  41.770  61.532  0.00  0.00     0.015 C 
HETATM   20  C   UNK N   1      27.527  42.379  61.721  0.00  0.00     0.012 C 
ENDROOT
BRANCH   1  21
HETATM   21  O   UNK N   1      29.408  43.145  59.561  0.00  0.00    -0.311 OA
BRANCH  21  22
HETATM   22  C   UNK N   1      30.439  43.919  59.142  0.00  0.00     0.293 C 
HETATM   23  O   UNK N   1      30.243  44.873  58.403  0.00  0.00    -0.259 OA
BRANCH  22  24
HETATM   24  C   UNK N   1      31.801  43.604  59.624  0.00  0.00     0.039 A 
HETATM   25  C   UNK N   1      32.144  43.753  60.980  0.00  0.00     0.017 A 
HETATM   26  C   UNK N   1      33.438  43.449  61.414  0.00  0.00     0.001 A 
HETATM   27  C   UNK N   1      34.398  43.000  60.501  0.00  0.00     0.000 A 
HETATM   28  C   UNK N   1      34.064  42.850  59.153  0.00  0.00     0.001 A 
HETATM   29  C   UNK N   1      32.772  43.147  58.715  0.00  0.00     0.017 A 
ENDBRANCH  22  24
ENDBRANCH  21  22
ENDBRANCH   1  21
BRANCH   3  30
HETATM   30  O   UNK N   1      27.064  39.563  60.341  0.00  0.00    -0.386 OA
HETATM   31  H   UNK N   1      26.704  39.816  59.452  0.00  0.00     0.210 HD
ENDBRANCH   3  30
BRANCH   4  32
HETATM   32  O   UNK N   1      30.500  38.403  59.962  0.00  0.00    -0.313 OA
BRANCH  32  33
HETATM   33  C   UNK N   1      31.402  37.864  60.823  0.00  0.00     0.255 C 
HETATM   34  O   UNK N   1      32.603  38.021  60.658  0.00  0.00    -0.266 OA
HETATM   35  C   UNK N   1      30.906  37.068  61.985  0.00  0.00     0.126 C 
ENDBRANCH  32  33
ENDBRANCH   4  32
BRANCH  11  36
HETATM   36  O   UNK N   1      29.607  42.767  56.255  0.00  0.00    -0.391 OA
HETATM   37  H   UNK N   1      29.461  43.173  57.149  0.00  0.00     0.210 HD
ENDBRANCH  11  36
BRANCH   9  38
HETATM   38  O   UNK N   1      27.856  39.715  53.091  0.00  0.00    -0.315 OA
BRANCH  38  39
HETATM   39  C   UNK N   1      26.984  40.447  52.346  0.00  0.00     0.255 C 
HETATM   40  O   UNK N   1      27.323  40.928  51.272  0.00  0.00    -0.266 OA
HETATM   41  C   UNK N   1      25.599  40.671  52.853  0.00  0.00     0.126 C 
ENDBRANCH  38  39
ENDBRANCH   9  38
TORSDOF 9
ENDMDL
MODEL 9
REMARK VINA RESULT:      -4.5     18.640     22.387
REMARK  9 active torsions:
REMARK  status: ('A' for Active; 'I' for Inactive)
REMARK    1  A    between atoms: C_2  and  O_3 
REMARK    2  A    between atoms: C_2  and  C_36 
REMARK    3  A    between atoms: O_3  and  C_4 
REMARK    4  A    between atoms: C_6  and  O_7 
REMARK    5  A    between atoms: C_9  and  O_10 
REMARK    6  A    between atoms: O_10  and  C_11 
REMARK    7  A    between atoms: C_18  and  O_19 
REMARK    8  A    between atoms: O_19  and  C_20 
REMARK    9  A    between atoms: C_24  and  O_25 
ROOT
HETATM    1  C   UNK N   1      50.508  52.995  58.011  0.00  0.00     0.146 C 
HETATM    2  C   UNK N   1      49.890  52.880  59.423  0.00  0.00     0.075 C 
HETATM    3  C   UNK N   1      50.977  52.106  60.251  0.00  0.00     0.095 C 
HETATM    4  C   UNK N   1      50.482  50.764  60.878  0.00  0.00     0.174 C 
HETATM    5  C   UNK N   1      49.494  50.891  62.067  0.00  0.00     0.036 C 
HETATM    6  C   UNK N   1      48.062  51.241  61.690  0.00  0.00    -0.023 C 
HETATM    7  C   UNK N   1      47.428  52.265  62.290  0.00  0.00    -0.019 C 
HETATM    8  C   UNK N   1      45.926  52.565  62.193  0.00  0.00    -0.003 C 
HETATM    9  C   UNK N   1      45.690  54.073  61.818  0.00  0.00     0.146 C 
HETATM   10  C   UNK N   1      45.766  54.455  60.317  0.00  0.00     0.070 C 
HETATM   11  C   UNK N   1      47.048  54.141  59.525  0.00  0.00     0.149 C 
HETATM   12  C   UNK N   1      48.301  54.829  60.053  0.00  0.00    -0.059 C 
HETATM   13  C   UNK N   1      49.540  54.267  59.995  0.00  0.00    -0.012 C 
HETATM   14  C   UNK N   1      48.192  56.270  60.513  0.00  0.00     0.046 C 
HETATM   15  C   UNK N   1      45.135  51.612  61.260  0.00  0.00     0.021 C 
HETATM   16  C   UNK N   1      45.403  52.319  63.633  0.00  0.00     0.021 C 
HETATM   17  C   UNK N   1      49.433  49.549  62.815  0.00  0.00     0.017 C 
HETATM   18  C   UNK N   1      52.112  51.817  59.216  0.00  0.00     0.048 C 
HETATM   19  C   UNK N   1      52.027  52.934  58.183  0.00  0.00     0.015 C 
HETATM   20  C   UNK N   1      52.706  54.238  58.633  0.00  0.00     0.012 C 
ENDROOT
BRANCH   1  21
HETATM   21  O   UNK N   1      50.051  54.100  57.323  0.00  0.00    -0.311 OA
BRANCH  21  22
HETATM   22  C   UNK N   1      50.221  54.326  55.998  0.00  0.00     0.293 C 
HETATM   23  O   UNK N   1      50.800  53.510  55.295  0.00  0.00    -0.259 OA
BRANCH  22  24
HETATM   24  C   UNK N   1      49.664  55.564  55.414  0.00  0.00     0.039 A 
HETATM   25  C   UNK N   1      49.920  55.915  54.075  0.00  0.00     0.017 A 
HETATM   26  C   UNK N   1      49.381  57.091  53.543  0.00  0.00     0.001 A 
HETATM   27  C   UNK N   1      48.590  57.925  54.339  0.00  0.00     0.000 A 
HETATM   28  C   UNK N   1      48.332  57.582  55.668  0.00  0.00     0.001 A 
HETATM   29  C   UNK N   1      48.862  56.408  56.204  0.00  0.00     0.017 A 
ENDBRANCH  22  24
ENDBRANCH  21  22
ENDBRANCH   1  21
BRANCH   3  30
HETATM   30  O   UNK N   1      51.496  52.945  61.261  0.00  0.00    -0.386 OA
HETATM   31  H   UNK N   1      51.710  52.387  62.053  0.00  0.00     0.210 HD
ENDBRANCH   3  30
BRANCH   4  32
HETATM   32  O   UNK N   1      49.917  49.954  59.900  0.00  0.00    -0.313 OA
BRANCH  32  33
HETATM   33  C   UNK N   1      50.254  48.663  59.648  0.00  0.00     0.255 C 
HETATM   34  O   UNK N   1      49.420  47.856  59.262  0.00  0.00    -0.266 OA
HETATM   35  C   UNK N   1      51.670  48.233  59.851  0.00  0.00     0.126 C 
ENDBRANCH  32  33
ENDBRANCH   4  32
BRANCH  11  36
HETATM   36  O   UNK N   1      46.871  54.584  58.203  0.00  0.00    -0.391 OA
HETATM   37  H   UNK N   1      47.635  54.245  57.666  0.00  0.00     0.210 HD
ENDBRANCH  11  36
BRANCH   9  38
HETATM   38  O   UNK N   1      44.428  54.456  62.254  0.00  0.00    -0.315 OA
BRANCH  38  39
HETATM   39  C   UNK N   1      44.119  55.703  62.704  0.00  0.00     0.255 C 
HETATM   40  O   UNK N   1      43.001  56.172  62.538  0.00  0.00    -0.266 OA
HETATM   41  C   UNK N   1      45.163  56.507  63.404  0.00  0.00     0.126 C 
ENDBRANCH  38  39
ENDBRANCH   9  38
TORSDOF 9
ENDMDL
