MODEL 1
REMARK VINA RESULT:      -5.0      0.000      0.000
REMARK  10 active torsions:
REMARK  status: ('A' for Active; 'I' for Inactive)
REMARK    1  A    between atoms: C_4  and  O_5 
REMARK    2  A    between atoms: C_9  and  O_10 
REMARK    3  A    between atoms: O_10  and  C_11 
REMARK    4  A    between atoms: C_14  and  O_15 
REMARK    5  A    between atoms: O_15  and  C_16 
REMARK    6  A    between atoms: C_20  and  O_21 
REMARK    7  A    between atoms: O_21  and  C_22 
REMARK    8  A    between atoms: C_22  and  C_24 
REMARK    9  A    between atoms: C_35  and  O_36 
REMARK   10  A    between atoms: O_36  and  C_37 
ROOT
HETATM    1  O   UNK N   1      29.528  38.431  56.725  0.00  0.00    -0.297 OA
HETATM    2  C   UNK N   1      28.375  38.779  56.932  0.00  0.00     0.140 C 
HETATM    3  C   UNK N   1      27.611  38.162  58.114  0.00  0.00     0.042 C 
HETATM    4  C   UNK N   1      28.429  38.378  59.442  0.00  0.00     0.156 C 
HETATM    5  C   UNK N   1      28.799  39.852  59.649  0.00  0.00     0.011 C 
HETATM    6  C   UNK N   1      30.038  40.407  59.795  0.00  0.00    -0.053 C 
HETATM    7  C   UNK N   1      30.132  41.908  60.080  0.00  0.00     0.196 C 
HETATM    8  C   UNK N   1      30.991  42.798  59.092  0.00  0.00     0.111 C 
HETATM    9  C   UNK N   1      30.423  43.023  57.638  0.00  0.00     0.076 C 
HETATM   10  C   UNK N   1      29.699  44.370  57.688  0.00  0.00     0.146 C 
HETATM   11  C   UNK N   1      30.665  45.202  58.538  0.00  0.00     0.015 C 
HETATM   12  C   UNK N   1      30.989  44.252  59.693  0.00  0.00     0.049 C 
HETATM   13  C   UNK N   1      30.116  46.560  58.982  0.00  0.00     0.012 C 
HETATM   14  C   UNK N   1      29.585  41.939  56.968  0.00  0.00    -0.011 C 
HETATM   15  C   UNK N   1      29.765  41.443  55.699  0.00  0.00    -0.057 C 
HETATM   16  C   UNK N   1      28.780  40.453  55.054  0.00  0.00     0.167 C 
HETATM   17  C   UNK N   1      27.741  39.790  55.993  0.00  0.00     0.116 C 
HETATM   18  C   UNK N   1      30.894  41.879  54.780  0.00  0.00     0.046 C 
HETATM   19  C   UNK N   1      31.308  39.581  59.781  0.00  0.00     0.046 C 
HETATM   20  C   UNK N   1      26.198  38.789  58.275  0.00  0.00     0.026 C 
HETATM   21  C   UNK N   1      27.398  36.653  57.857  0.00  0.00     0.026 C 
ENDROOT
BRANCH  10  22
HETATM   22  O   UNK N   1      28.468  44.234  58.312  0.00  0.00    -0.311 OA
BRANCH  22  23
HETATM   23  C   UNK N   1      27.289  44.655  57.774  0.00  0.00     0.293 C 
HETATM   24  O   UNK N   1      27.010  45.847  57.737  0.00  0.00    -0.259 OA
BRANCH  23  25
HETATM   25  C   UNK N   1      26.347  43.661  57.221  0.00  0.00     0.039 A 
HETATM   26  C   UNK N   1      25.582  42.846  58.076  0.00  0.00     0.017 A 
HETATM   27  C   UNK N   1      24.694  41.908  57.543  0.00  0.00     0.001 A 
HETATM   28  C   UNK N   1      24.562  41.776  56.160  0.00  0.00     0.000 A 
HETATM   29  C   UNK N   1      25.318  42.582  55.304  0.00  0.00     0.001 A 
HETATM   30  C   UNK N   1      26.206  43.521  55.830  0.00  0.00     0.017 A 
ENDBRANCH  23  25
ENDBRANCH  22  23
ENDBRANCH  10  22
BRANCH   8  31
HETATM   31  O   UNK N   1      32.267  42.245  59.002  0.00  0.00    -0.306 OA
BRANCH  31  32
HETATM   32  C   UNK N   1      33.466  42.822  59.299  0.00  0.00     0.255 C 
HETATM   33  O   UNK N   1      34.134  43.374  58.440  0.00  0.00    -0.266 OA
HETATM   34  C   UNK N   1      33.984  42.745  60.696  0.00  0.00     0.126 C 
ENDBRANCH  31  32
ENDBRANCH   8  31
BRANCH   7  35
HETATM   35  O   UNK N   1      30.649  42.018  61.366  0.00  0.00    -0.309 OA
BRANCH  35  36
HETATM   36  C   UNK N   1      29.902  42.150  62.499  0.00  0.00     0.255 C 
HETATM   37  O   UNK N   1      30.352  41.841  63.593  0.00  0.00    -0.266 OA
HETATM   38  C   UNK N   1      28.513  42.695  62.402  0.00  0.00     0.126 C 
ENDBRANCH  35  36
ENDBRANCH   7  35
BRANCH  16  39
HETATM   39  O   UNK N   1      28.122  41.135  54.043  0.00  0.00    -0.311 OA
BRANCH  39  40
HETATM   40  C   UNK N   1      28.021  40.697  52.760  0.00  0.00     0.255 C 
HETATM   41  O   UNK N   1      27.649  39.559  52.513  0.00  0.00    -0.266 OA
HETATM   42  C   UNK N   1      28.395  41.617  51.645  0.00  0.00     0.126 C 
ENDBRANCH  39  40
ENDBRANCH  16  39
BRANCH   4  43
HETATM   43  O   UNK N   1      29.520  37.496  59.577  0.00  0.00    -0.391 OA
HETATM   44  H   UNK N   1      30.183  37.860  60.209  0.00  0.00     0.210 HD
ENDBRANCH   4  43
TORSDOF 10
ENDMDL
MODEL 2
REMARK VINA RESULT:      -4.9      2.057      4.734
REMARK  10 active torsions:
REMARK  status: ('A' for Active; 'I' for Inactive)
REMARK    1  A    between atoms: C_4  and  O_5 
REMARK    2  A    between atoms: C_9  and  O_10 
REMARK    3  A    between atoms: O_10  and  C_11 
REMARK    4  A    between atoms: C_14  and  O_15 
REMARK    5  A    between atoms: O_15  and  C_16 
REMARK    6  A    between atoms: C_20  and  O_21 
REMARK    7  A    between atoms: O_21  and  C_22 
REMARK    8  A    between atoms: C_22  and  C_24 
REMARK    9  A    between atoms: C_35  and  O_36 
REMARK   10  A    between atoms: O_36  and  C_37 
ROOT
HETATM    1  O   UNK N   1      25.967  41.957  57.966  0.00  0.00    -0.297 OA
HETATM    2  C   UNK N   1      26.248  43.135  57.801  0.00  0.00     0.140 C 
HETATM    3  C   UNK N   1      25.574  44.193  58.687  0.00  0.00     0.042 C 
HETATM    4  C   UNK N   1      25.818  43.845  60.204  0.00  0.00     0.156 C 
HETATM    5  C   UNK N   1      27.307  43.642  60.509  0.00  0.00     0.011 C 
HETATM    6  C   UNK N   1      27.928  42.544  61.033  0.00  0.00    -0.053 C 
HETATM    7  C   UNK N   1      29.427  42.629  61.326  0.00  0.00     0.196 C 
HETATM    8  C   UNK N   1      30.377  41.556  60.652  0.00  0.00     0.111 C 
HETATM    9  C   UNK N   1      30.589  41.653  59.092  0.00  0.00     0.076 C 
HETATM   10  C   UNK N   1      31.893  42.431  58.907  0.00  0.00     0.146 C 
HETATM   11  C   UNK N   1      32.765  41.828  60.012  0.00  0.00     0.015 C 
HETATM   12  C   UNK N   1      31.820  41.828  61.215  0.00  0.00     0.049 C 
HETATM   13  C   UNK N   1      34.085  42.565  60.256  0.00  0.00     0.012 C 
HETATM   14  C   UNK N   1      29.469  42.177  58.199  0.00  0.00    -0.011 C 
HETATM   15  C   UNK N   1      29.001  41.582  57.052  0.00  0.00    -0.057 C 
HETATM   16  C   UNK N   1      27.967  42.258  56.136  0.00  0.00     0.167 C 
HETATM   17  C   UNK N   1      27.234  43.499  56.706  0.00  0.00     0.116 C 
HETATM   18  C   UNK N   1      29.511  40.248  56.530  0.00  0.00     0.046 C 
HETATM   19  C   UNK N   1      27.173  41.289  61.420  0.00  0.00     0.046 C 
HETATM   20  C   UNK N   1      26.120  45.619  58.395  0.00  0.00     0.026 C 
HETATM   21  C   UNK N   1      24.059  44.229  58.384  0.00  0.00     0.026 C 
ENDROOT
BRANCH  10  22
HETATM   22  O   UNK N   1      31.681  43.786  59.115  0.00  0.00    -0.311 OA
BRANCH  22  23
HETATM   23  C   UNK N   1      31.614  44.711  58.116  0.00  0.00     0.293 C 
HETATM   24  O   UNK N   1      32.224  44.543  57.068  0.00  0.00    -0.259 OA
BRANCH  23  25
HETATM   25  C   UNK N   1      30.786  45.920  58.300  0.00  0.00     0.039 A 
HETATM   26  C   UNK N   1      30.745  46.917  57.308  0.00  0.00     0.017 A 
HETATM   27  C   UNK N   1      29.959  48.058  57.492  0.00  0.00     0.001 A 
HETATM   28  C   UNK N   1      29.210  48.212  58.660  0.00  0.00     0.000 A 
HETATM   29  C   UNK N   1      29.246  47.226  59.650  0.00  0.00     0.001 A 
HETATM   30  C   UNK N   1      30.029  46.085  59.472  0.00  0.00     0.017 A 
ENDBRANCH  23  25
ENDBRANCH  22  23
ENDBRANCH  10  22
BRANCH   8  31
HETATM   31  O   UNK N   1      29.896  40.287  60.968  0.00  0.00    -0.306 OA
BRANCH  31  32
HETATM   32  C   UNK N   1      29.956  39.147  60.224  0.00  0.00     0.255 C 
HETATM   33  O   UNK N   1      28.974  38.718  59.639  0.00  0.00    -0.266 OA
HETATM   34  C   UNK N   1      31.242  38.391  60.153  0.00  0.00     0.126 C 
ENDBRANCH  31  32
ENDBRANCH   8  31
BRANCH   7  35
HETATM   35  O   UNK N   1      29.549  42.547  62.709  0.00  0.00    -0.309 OA
BRANCH  35  36
HETATM   36  C   UNK N   1      29.582  43.616  63.554  0.00  0.00     0.255 C 
HETATM   37  O   UNK N   1      29.252  43.505  64.726  0.00  0.00    -0.266 OA
HETATM   38  C   UNK N   1      30.041  44.943  63.041  0.00  0.00     0.126 C 
ENDBRANCH  35  36
ENDBRANCH   7  35
BRANCH  16  39
HETATM   39  O   UNK N   1      28.624  42.605  54.967  0.00  0.00    -0.311 OA
BRANCH  39  40
HETATM   40  C   UNK N   1      28.204  42.266  53.720  0.00  0.00     0.255 C 
HETATM   41  O   UNK N   1      27.040  41.951  53.513  0.00  0.00    -0.266 OA
HETATM   42  C   UNK N   1      29.187  42.257  52.596  0.00  0.00     0.126 C 
ENDBRANCH  39  40
ENDBRANCH  16  39
BRANCH   4  43
HETATM   43  O   UNK N   1      24.995  42.803  60.678  0.00  0.00    -0.391 OA
HETATM   44  H   UNK N   1      24.748  42.958  61.619  0.00  0.00     0.210 HD
ENDBRANCH   4  43
TORSDOF 10
ENDMDL
MODEL 3
REMARK VINA RESULT:      -4.5      2.084      6.651
REMARK  10 active torsions:
REMARK  status: ('A' for Active; 'I' for Inactive)
REMARK    1  A    between atoms: C_4  and  O_5 
REMARK    2  A    between atoms: C_9  and  O_10 
REMARK    3  A    between atoms: O_10  and  C_11 
REMARK    4  A    between atoms: C_14  and  O_15 
REMARK    5  A    between atoms: O_15  and  C_16 
REMARK    6  A    between atoms: C_20  and  O_21 
REMARK    7  A    between atoms: O_21  and  C_22 
REMARK    8  A    between atoms: C_22  and  C_24 
REMARK    9  A    between atoms: C_35  and  O_36 
REMARK   10  A    between atoms: O_36  and  C_37 
ROOT
HETATM    1  O   UNK N   1      26.187  43.095  61.186  0.00  0.00    -0.297 OA
HETATM    2  C   UNK N   1      27.324  43.237  61.612  0.00  0.00     0.140 C 
HETATM    3  C   UNK N   1      27.865  42.235  62.643  0.00  0.00     0.042 C 
HETATM    4  C   UNK N   1      27.740  40.772  62.072  0.00  0.00     0.156 C 
HETATM    5  C   UNK N   1      28.389  40.644  60.689  0.00  0.00     0.011 C 
HETATM    6  C   UNK N   1      27.819  40.243  59.514  0.00  0.00    -0.053 C 
HETATM    7  C   UNK N   1      28.714  40.116  58.279  0.00  0.00     0.196 C 
HETATM    8  C   UNK N   1      28.317  40.939  56.986  0.00  0.00     0.111 C 
HETATM    9  C   UNK N   1      28.478  42.507  57.048  0.00  0.00     0.076 C 
HETATM   10  C   UNK N   1      29.837  42.800  56.408  0.00  0.00     0.146 C 
HETATM   11  C   UNK N   1      29.832  41.828  55.225  0.00  0.00     0.015 C 
HETATM   12  C   UNK N   1      29.344  40.528  55.868  0.00  0.00     0.049 C 
HETATM   13  C   UNK N   1      31.175  41.699  54.500  0.00  0.00     0.012 C 
HETATM   14  C   UNK N   1      28.287  43.245  58.368  0.00  0.00    -0.011 C 
HETATM   15  C   UNK N   1      27.506  44.358  58.569  0.00  0.00    -0.057 C 
HETATM   16  C   UNK N   1      27.488  45.122  59.904  0.00  0.00     0.167 C 
HETATM   17  C   UNK N   1      28.142  44.418  61.120  0.00  0.00     0.116 C 
HETATM   18  C   UNK N   1      26.654  44.993  57.482  0.00  0.00     0.046 C 
HETATM   19  C   UNK N   1      26.364  39.831  59.412  0.00  0.00     0.046 C 
HETATM   20  C   UNK N   1      29.350  42.520  62.999  0.00  0.00     0.026 C 
HETATM   21  C   UNK N   1      27.062  42.365  63.957  0.00  0.00     0.026 C 
ENDROOT
BRANCH  10  22
HETATM   22  O   UNK N   1      30.862  42.509  57.296  0.00  0.00    -0.311 OA
BRANCH  22  23
HETATM   23  C   UNK N   1      31.881  43.363  57.593  0.00  0.00     0.293 C 
HETATM   24  O   UNK N   1      32.303  44.147  56.753  0.00  0.00    -0.259 OA
BRANCH  23  25
HETATM   25  C   UNK N   1      32.469  43.349  58.948  0.00  0.00     0.039 A 
HETATM   26  C   UNK N   1      33.824  43.017  59.137  0.00  0.00     0.017 A 
HETATM   27  C   UNK N   1      34.371  43.004  60.422  0.00  0.00     0.001 A 
HETATM   28  C   UNK N   1      33.576  43.322  61.525  0.00  0.00     0.000 A 
HETATM   29  C   UNK N   1      32.230  43.652  61.346  0.00  0.00     0.001 A 
HETATM   30  C   UNK N   1      31.678  43.666  60.064  0.00  0.00     0.017 A 
ENDBRANCH  23  25
ENDBRANCH  22  23
ENDBRANCH  10  22
BRANCH   8  31
HETATM   31  O   UNK N   1      26.998  40.629  56.659  0.00  0.00    -0.306 OA
BRANCH  31  32
HETATM   32  C   UNK N   1      26.053  41.432  56.092  0.00  0.00     0.255 C 
HETATM   33  O   UNK N   1      25.156  41.922  56.758  0.00  0.00    -0.266 OA
HETATM   34  C   UNK N   1      26.100  41.685  54.622  0.00  0.00     0.126 C 
ENDBRANCH  31  32
ENDBRANCH   8  31
BRANCH   7  35
HETATM   35  O   UNK N   1      28.743  38.760  57.970  0.00  0.00    -0.309 OA
BRANCH  35  36
HETATM   36  C   UNK N   1      29.493  37.827  58.623  0.00  0.00     0.255 C 
HETATM   37  O   UNK N   1      30.616  38.091  59.028  0.00  0.00    -0.266 OA
HETATM   38  C   UNK N   1      28.928  36.464  58.858  0.00  0.00     0.126 C 
ENDBRANCH  35  36
ENDBRANCH   7  35
BRANCH  16  39
HETATM   39  O   UNK N   1      28.110  46.339  59.684  0.00  0.00    -0.311 OA
BRANCH  39  40
HETATM   40  C   UNK N   1      29.457  46.522  59.661  0.00  0.00     0.255 C 
HETATM   41  O   UNK N   1      30.086  46.692  60.696  0.00  0.00    -0.266 OA
HETATM   42  C   UNK N   1      30.168  46.537  58.347  0.00  0.00     0.126 C 
ENDBRANCH  39  40
ENDBRANCH  16  39
BRANCH   4  43
HETATM   43  O   UNK N   1      26.429  40.257  62.133  0.00  0.00    -0.391 OA
HETATM   44  H   UNK N   1      25.769  40.981  62.029  0.00  0.00     0.210 HD
ENDBRANCH   4  43
TORSDOF 10
ENDMDL
MODEL 4
REMARK VINA RESULT:      -4.5      2.715      5.859
REMARK  10 active torsions:
REMARK  status: ('A' for Active; 'I' for Inactive)
REMARK    1  A    between atoms: C_4  and  O_5 
REMARK    2  A    between atoms: C_9  and  O_10 
REMARK    3  A    between atoms: O_10  and  C_11 
REMARK    4  A    between atoms: C_14  and  O_15 
REMARK    5  A    between atoms: O_15  and  C_16 
REMARK    6  A    between atoms: C_20  and  O_21 
REMARK    7  A    between atoms: O_21  and  C_22 
REMARK    8  A    between atoms: C_22  and  C_24 
REMARK    9  A    between atoms: C_35  and  O_36 
REMARK   10  A    between atoms: O_36  and  C_37 
ROOT
HETATM    1  O   UNK N   1      29.429  41.428  62.302  0.00  0.00    -0.297 OA
HETATM    2  C   UNK N   1      29.715  40.989  61.198  0.00  0.00     0.140 C 
HETATM    3  C   UNK N   1      28.679  40.144  60.441  0.00  0.00     0.042 C 
HETATM    4  C   UNK N   1      27.334  40.952  60.307  0.00  0.00     0.156 C 
HETATM    5  C   UNK N   1      27.562  42.340  59.697  0.00  0.00     0.011 C 
HETATM    6  C   UNK N   1      27.258  43.563  60.223  0.00  0.00    -0.053 C 
HETATM    7  C   UNK N   1      27.510  44.805  59.366  0.00  0.00     0.196 C 
HETATM    8  C   UNK N   1      28.442  45.939  59.958  0.00  0.00     0.111 C 
HETATM    9  C   UNK N   1      29.980  45.616  60.093  0.00  0.00     0.076 C 
HETATM   10  C   UNK N   1      30.630  46.202  58.839  0.00  0.00     0.146 C 
HETATM   11  C   UNK N   1      29.883  47.533  58.703  0.00  0.00     0.015 C 
HETATM   12  C   UNK N   1      28.426  47.115  58.913  0.00  0.00     0.049 C 
HETATM   13  C   UNK N   1      30.136  48.274  57.387  0.00  0.00     0.012 C 
HETATM   14  C   UNK N   1      30.441  44.189  60.372  0.00  0.00    -0.011 C 
HETATM   15  C   UNK N   1      31.335  43.801  61.341  0.00  0.00    -0.057 C 
HETATM   16  C   UNK N   1      31.850  42.356  61.454  0.00  0.00     0.167 C 
HETATM   17  C   UNK N   1      31.096  41.279  60.635  0.00  0.00     0.116 C 
HETATM   18  C   UNK N   1      31.964  44.762  62.337  0.00  0.00     0.046 C 
HETATM   19  C   UNK N   1      26.597  43.726  61.577  0.00  0.00     0.046 C 
HETATM   20  C   UNK N   1      29.183  39.751  59.023  0.00  0.00     0.026 C 
HETATM   21  C   UNK N   1      28.435  38.823  61.205  0.00  0.00     0.026 C 
ENDROOT
BRANCH  10  22
HETATM   22  O   UNK N   1      30.399  45.380  57.745  0.00  0.00    -0.311 OA
BRANCH  22  23
HETATM   23  C   UNK N   1      31.331  44.543  57.209  0.00  0.00     0.293 C 
HETATM   24  O   UNK N   1      32.526  44.771  57.343  0.00  0.00    -0.259 OA
BRANCH  23  25
HETATM   25  C   UNK N   1      30.889  43.343  56.469  0.00  0.00     0.039 A 
HETATM   26  C   UNK N   1      31.752  42.706  55.558  0.00  0.00     0.017 A 
HETATM   27  C   UNK N   1      31.325  41.572  54.862  0.00  0.00     0.001 A 
HETATM   28  C   UNK N   1      30.040  41.066  55.069  0.00  0.00     0.000 A 
HETATM   29  C   UNK N   1      29.178  41.694  55.972  0.00  0.00     0.001 A 
HETATM   30  C   UNK N   1      29.599  42.827  56.670  0.00  0.00     0.017 A 
ENDBRANCH  23  25
ENDBRANCH  22  23
ENDBRANCH  10  22
BRANCH   8  31
HETATM   31  O   UNK N   1      27.943  46.309  61.206  0.00  0.00    -0.306 OA
BRANCH  31  32
HETATM   32  C   UNK N   1      28.610  46.867  62.255  0.00  0.00     0.255 C 
HETATM   33  O   UNK N   1      28.928  46.204  63.229  0.00  0.00    -0.266 OA
HETATM   34  C   UNK N   1      28.924  48.326  62.226  0.00  0.00     0.126 C 
ENDBRANCH  31  32
ENDBRANCH   8  31
BRANCH   7  35
HETATM   35  O   UNK N   1      26.254  45.338  59.093  0.00  0.00    -0.309 OA
BRANCH  35  36
HETATM   36  C   UNK N   1      25.534  45.098  57.960  0.00  0.00     0.255 C 
HETATM   37  O   UNK N   1      25.833  45.625  56.898  0.00  0.00    -0.266 OA
HETATM   38  C   UNK N   1      24.370  44.163  58.016  0.00  0.00     0.126 C 
ENDBRANCH  35  36
ENDBRANCH   7  35
BRANCH  16  39
HETATM   39  O   UNK N   1      33.184  42.370  61.082  0.00  0.00    -0.311 OA
BRANCH  39  40
HETATM   40  C   UNK N   1      33.688  41.717  60.001  0.00  0.00     0.255 C 
HETATM   41  O   UNK N   1      33.863  40.507  60.025  0.00  0.00    -0.266 OA
HETATM   42  C   UNK N   1      34.051  42.497  58.781  0.00  0.00     0.126 C 
ENDBRANCH  39  40
ENDBRANCH  16  39
BRANCH   4  43
HETATM   43  O   UNK N   1      26.574  40.973  61.495  0.00  0.00    -0.391 OA
HETATM   44  H   UNK N   1      27.054  41.462  62.203  0.00  0.00     0.210 HD
ENDBRANCH   4  43
TORSDOF 10
ENDMDL
MODEL 5
REMARK VINA RESULT:      -4.5      1.829      6.120
REMARK  10 active torsions:
REMARK  status: ('A' for Active; 'I' for Inactive)
REMARK    1  A    between atoms: C_4  and  O_5 
REMARK    2  A    between atoms: C_9  and  O_10 
REMARK    3  A    between atoms: O_10  and  C_11 
REMARK    4  A    between atoms: C_14  and  O_15 
REMARK    5  A    between atoms: O_15  and  C_16 
REMARK    6  A    between atoms: C_20  and  O_21 
REMARK    7  A    between atoms: O_21  and  C_22 
REMARK    8  A    between atoms: C_22  and  C_24 
REMARK    9  A    between atoms: C_35  and  O_36 
REMARK   10  A    between atoms: O_36  and  C_37 
ROOT
HETATM    1  O   UNK N   1      28.259  43.820  59.121  0.00  0.00    -0.297 OA
HETATM    2  C   UNK N   1      29.100  43.695  58.243  0.00  0.00     0.140 C 
HETATM    3  C   UNK N   1      30.572  43.983  58.575  0.00  0.00     0.042 C 
HETATM    4  C   UNK N   1      31.019  43.103  59.803  0.00  0.00     0.156 C 
HETATM    5  C   UNK N   1      30.717  41.617  59.577  0.00  0.00     0.011 C 
HETATM    6  C   UNK N   1      29.951  40.778  60.335  0.00  0.00    -0.053 C 
HETATM    7  C   UNK N   1      29.881  39.302  59.938  0.00  0.00     0.196 C 
HETATM    8  C   UNK N   1      28.453  38.674  59.667  0.00  0.00     0.111 C 
HETATM    9  C   UNK N   1      27.686  39.147  58.373  0.00  0.00     0.076 C 
HETATM   10  C   UNK N   1      27.985  38.085  57.313  0.00  0.00     0.146 C 
HETATM   11  C   UNK N   1      27.883  36.797  58.136  0.00  0.00     0.015 C 
HETATM   12  C   UNK N   1      28.689  37.143  59.390  0.00  0.00     0.049 C 
HETATM   13  C   UNK N   1      28.366  35.537  57.412  0.00  0.00     0.012 C 
HETATM   14  C   UNK N   1      27.880  40.564  57.844  0.00  0.00    -0.011 C 
HETATM   15  C   UNK N   1      26.882  41.443  57.497  0.00  0.00    -0.057 C 
HETATM   16  C   UNK N   1      27.174  42.801  56.835  0.00  0.00     0.167 C 
HETATM   17  C   UNK N   1      28.645  43.285  56.853  0.00  0.00     0.116 C 
HETATM   18  C   UNK N   1      25.401  41.135  57.649  0.00  0.00     0.046 C 
HETATM   19  C   UNK N   1      29.253  41.232  61.601  0.00  0.00     0.046 C 
HETATM   20  C   UNK N   1      31.503  43.686  57.366  0.00  0.00     0.026 C 
HETATM   21  C   UNK N   1      30.741  45.484  58.904  0.00  0.00     0.026 C 
ENDROOT
BRANCH  10  22
HETATM   22  O   UNK N   1      29.263  38.257  56.802  0.00  0.00    -0.311 OA
BRANCH  22  23
HETATM   23  C   UNK N   1      29.558  38.269  55.472  0.00  0.00     0.293 C 
HETATM   24  O   UNK N   1      29.965  37.259  54.914  0.00  0.00    -0.259 OA
BRANCH  23  25
HETATM   25  C   UNK N   1      29.373  39.514  54.698  0.00  0.00     0.039 A 
HETATM   26  C   UNK N   1      30.320  40.552  54.775  0.00  0.00     0.017 A 
HETATM   27  C   UNK N   1      30.136  41.726  54.040  0.00  0.00     0.001 A 
HETATM   28  C   UNK N   1      29.012  41.873  53.225  0.00  0.00     0.000 A 
HETATM   29  C   UNK N   1      28.067  40.846  53.144  0.00  0.00     0.001 A 
HETATM   30  C   UNK N   1      28.246  39.671  53.876  0.00  0.00     0.017 A 
ENDBRANCH  23  25
ENDBRANCH  22  23
ENDBRANCH  10  22
BRANCH   8  31
HETATM   31  O   UNK N   1      27.652  38.910  60.783  0.00  0.00    -0.306 OA
BRANCH  31  32
HETATM   32  C   UNK N   1      26.293  38.970  60.855  0.00  0.00     0.255 C 
HETATM   33  O   UNK N   1      25.602  37.989  60.631  0.00  0.00    -0.266 OA
HETATM   34  C   UNK N   1      25.638  40.271  61.180  0.00  0.00     0.126 C 
ENDBRANCH  31  32
ENDBRANCH   8  31
BRANCH   7  35
HETATM   35  O   UNK N   1      30.504  38.602  60.966  0.00  0.00    -0.309 OA
BRANCH  35  36
HETATM   36  C   UNK N   1      31.753  38.060  60.896  0.00  0.00     0.255 C 
HETATM   37  O   UNK N   1      32.632  38.585  60.227  0.00  0.00    -0.266 OA
HETATM   38  C   UNK N   1      32.055  36.812  61.659  0.00  0.00     0.126 C 
ENDBRANCH  35  36
ENDBRANCH   7  35
BRANCH  16  39
HETATM   39  O   UNK N   1      26.730  42.719  55.525  0.00  0.00    -0.311 OA
BRANCH  39  40
HETATM   40  C   UNK N   1      25.870  43.599  54.949  0.00  0.00     0.255 C 
HETATM   41  O   UNK N   1      25.492  44.594  55.552  0.00  0.00    -0.266 OA
HETATM   42  C   UNK N   1      25.367  43.330  53.568  0.00  0.00     0.126 C 
ENDBRANCH  39  40
ENDBRANCH  16  39
BRANCH   4  43
HETATM   43  O   UNK N   1      30.556  43.594  61.041  0.00  0.00    -0.391 OA
HETATM   44  H   UNK N   1      30.916  43.055  61.783  0.00  0.00     0.210 HD
ENDBRANCH   4  43
TORSDOF 10
ENDMDL
MODEL 6
REMARK VINA RESULT:      -4.4      2.669      6.982
REMARK  10 active torsions:
REMARK  status: ('A' for Active; 'I' for Inactive)
REMARK    1  A    between atoms: C_4  and  O_5 
REMARK    2  A    between atoms: C_9  and  O_10 
REMARK    3  A    between atoms: O_10  and  C_11 
REMARK    4  A    between atoms: C_14  and  O_15 
REMARK    5  A    between atoms: O_15  and  C_16 
REMARK    6  A    between atoms: C_20  and  O_21 
REMARK    7  A    between atoms: O_21  and  C_22 
REMARK    8  A    between atoms: C_22  and  C_24 
REMARK    9  A    between atoms: C_35  and  O_36 
REMARK   10  A    between atoms: O_36  and  C_37 
ROOT
HETATM    1  O   UNK N   1      26.664  46.704  57.311  0.00  0.00    -0.297 OA
HETATM    2  C   UNK N   1      26.487  46.640  58.519  0.00  0.00     0.140 C 
HETATM    3  C   UNK N   1      25.292  45.837  59.056  0.00  0.00     0.042 C 
HETATM    4  C   UNK N   1      25.350  44.366  58.496  0.00  0.00     0.156 C 
HETATM    5  C   UNK N   1      26.708  43.707  58.767  0.00  0.00     0.011 C 
HETATM    6  C   UNK N   1      27.594  43.181  57.871  0.00  0.00    -0.053 C 
HETATM    7  C   UNK N   1      28.851  42.495  58.412  0.00  0.00     0.196 C 
HETATM    8  C   UNK N   1      30.258  43.024  57.913  0.00  0.00     0.111 C 
HETATM    9  C   UNK N   1      30.716  44.448  58.413  0.00  0.00     0.076 C 
HETATM   10  C   UNK N   1      31.618  44.183  59.620  0.00  0.00     0.146 C 
HETATM   11  C   UNK N   1      32.423  42.972  59.137  0.00  0.00     0.015 C 
HETATM   12  C   UNK N   1      31.337  42.071  58.545  0.00  0.00     0.049 C 
HETATM   13  C   UNK N   1      33.272  42.298  60.219  0.00  0.00     0.012 C 
HETATM   14  C   UNK N   1      29.679  45.531  58.691  0.00  0.00    -0.011 C 
HETATM   15  C   UNK N   1      29.717  46.826  58.232  0.00  0.00    -0.057 C 
HETATM   16  C   UNK N   1      28.702  47.890  58.684  0.00  0.00     0.167 C 
HETATM   17  C   UNK N   1      27.445  47.382  59.434  0.00  0.00     0.116 C 
HETATM   18  C   UNK N   1      30.801  47.358  57.309  0.00  0.00     0.046 C 
HETATM   19  C   UNK N   1      27.333  43.166  56.379  0.00  0.00     0.046 C 
HETATM   20  C   UNK N   1      25.280  45.793  60.609  0.00  0.00     0.026 C 
HETATM   21  C   UNK N   1      23.976  46.522  58.622  0.00  0.00     0.026 C 
ENDROOT
BRANCH  10  22
HETATM   22  O   UNK N   1      30.856  43.870  60.735  0.00  0.00    -0.311 OA
BRANCH  22  23
HETATM   23  C   UNK N   1      31.008  44.458  61.954  0.00  0.00     0.293 C 
HETATM   24  O   UNK N   1      31.870  44.070  62.731  0.00  0.00    -0.259 OA
BRANCH  23  25
HETATM   25  C   UNK N   1      30.129  45.584  62.333  0.00  0.00     0.039 A 
HETATM   26  C   UNK N   1      28.765  45.366  62.604  0.00  0.00     0.017 A 
HETATM   27  C   UNK N   1      27.941  46.437  62.960  0.00  0.00     0.001 A 
HETATM   28  C   UNK N   1      28.468  47.728  63.049  0.00  0.00     0.000 A 
HETATM   29  C   UNK N   1      29.822  47.951  62.781  0.00  0.00     0.001 A 
HETATM   30  C   UNK N   1      30.649  46.885  62.424  0.00  0.00     0.017 A 
ENDBRANCH  23  25
ENDBRANCH  22  23
ENDBRANCH  10  22
BRANCH   8  31
HETATM   31  O   UNK N   1      30.262  43.008  56.519  0.00  0.00    -0.306 OA
BRANCH  31  32
HETATM   32  C   UNK N   1      31.181  42.453  55.680  0.00  0.00     0.255 C 
HETATM   33  O   UNK N   1      32.333  42.854  55.646  0.00  0.00    -0.266 OA
HETATM   34  C   UNK N   1      30.758  41.356  54.760  0.00  0.00     0.126 C 
ENDBRANCH  31  32
ENDBRANCH   8  31
BRANCH   7  35
HETATM   35  O   UNK N   1      28.722  41.150  58.080  0.00  0.00    -0.309 OA
BRANCH  35  36
HETATM   36  C   UNK N   1      28.101  40.213  58.852  0.00  0.00     0.255 C 
HETATM   37  O   UNK N   1      28.475  39.987  59.994  0.00  0.00    -0.266 OA
HETATM   38  C   UNK N   1      26.935  39.460  58.297  0.00  0.00     0.126 C 
ENDBRANCH  35  36
ENDBRANCH   7  35
BRANCH  16  39
HETATM   39  O   UNK N   1      29.385  48.791  59.483  0.00  0.00    -0.311 OA
BRANCH  39  40
HETATM   40  C   UNK N   1      29.048  50.100  59.628  0.00  0.00     0.255 C 
HETATM   41  O   UNK N   1      28.749  50.554  60.723  0.00  0.00    -0.266 OA
HETATM   42  C   UNK N   1      29.022  50.983  58.424  0.00  0.00     0.126 C 
ENDBRANCH  39  40
ENDBRANCH  16  39
BRANCH   4  43
HETATM   43  O   UNK N   1      24.927  44.261  57.155  0.00  0.00    -0.391 OA
HETATM   44  H   UNK N   1      25.607  43.796  56.614  0.00  0.00     0.210 HD
ENDBRANCH   4  43
TORSDOF 10
ENDMDL
MODEL 7
REMARK VINA RESULT:      -4.3      2.674      5.749
REMARK  10 active torsions:
REMARK  status: ('A' for Active; 'I' for Inactive)
REMARK    1  A    between atoms: C_4  and  O_5 
REMARK    2  A    between atoms: C_9  and  O_10 
REMARK    3  A    between atoms: O_10  and  C_11 
REMARK    4  A    between atoms: C_14  and  O_15 
REMARK    5  A    between atoms: O_15  and  C_16 
REMARK    6  A    between atoms: C_20  and  O_21 
REMARK    7  A    between atoms: O_21  and  C_22 
REMARK    8  A    between atoms: C_22  and  C_24 
REMARK    9  A    between atoms: C_35  and  O_36 
REMARK   10  A    between atoms: O_36  and  C_37 
ROOT
HETATM    1  O   UNK N   1      27.460  44.013  57.038  0.00  0.00    -0.297 OA
HETATM    2  C   UNK N   1      26.821  44.329  58.031  0.00  0.00     0.140 C 
HETATM    3  C   UNK N   1      25.761  43.358  58.575  0.00  0.00     0.042 C 
HETATM    4  C   UNK N   1      26.421  41.955  58.849  0.00  0.00     0.156 C 
HETATM    5  C   UNK N   1      27.663  42.075  59.741  0.00  0.00     0.011 C 
HETATM    6  C   UNK N   1      28.944  41.680  59.477  0.00  0.00    -0.053 C 
HETATM    7  C   UNK N   1      29.993  41.834  60.580  0.00  0.00     0.196 C 
HETATM    8  C   UNK N   1      31.292  42.680  60.256  0.00  0.00     0.111 C 
HETATM    9  C   UNK N   1      31.119  44.238  60.084  0.00  0.00     0.076 C 
HETATM   10  C   UNK N   1      31.474  44.838  61.446  0.00  0.00     0.146 C 
HETATM   11  C   UNK N   1      32.688  43.992  61.843  0.00  0.00     0.015 C 
HETATM   12  C   UNK N   1      32.217  42.572  61.523  0.00  0.00     0.049 C 
HETATM   13  C   UNK N   1      33.153  44.184  63.290  0.00  0.00     0.012 C 
HETATM   14  C   UNK N   1      29.821  44.806  59.521  0.00  0.00    -0.011 C 
HETATM   15  C   UNK N   1      29.712  45.730  58.509  0.00  0.00    -0.057 C 
HETATM   16  C   UNK N   1      28.365  46.354  58.106  0.00  0.00     0.167 C 
HETATM   17  C   UNK N   1      27.087  45.682  58.666  0.00  0.00     0.116 C 
HETATM   18  C   UNK N   1      30.904  46.287  57.749  0.00  0.00     0.046 C 
HETATM   19  C   UNK N   1      29.339  41.012  58.176  0.00  0.00     0.046 C 
HETATM   20  C   UNK N   1      25.117  43.886  59.887  0.00  0.00     0.026 C 
HETATM   21  C   UNK N   1      24.616  43.218  57.546  0.00  0.00     0.026 C 
ENDROOT
BRANCH  10  22
HETATM   22  O   UNK N   1      30.426  44.668  62.338  0.00  0.00    -0.311 OA
BRANCH  22  23
HETATM   23  C   UNK N   1      29.946  45.652  63.148  0.00  0.00     0.293 C 
HETATM   24  O   UNK N   1      30.118  45.604  64.359  0.00  0.00    -0.259 OA
BRANCH  23  25
HETATM   25  C   UNK N   1      29.220  46.793  62.553  0.00  0.00     0.039 A 
HETATM   26  C   UNK N   1      29.900  47.981  62.224  0.00  0.00     0.017 A 
HETATM   27  C   UNK N   1      29.205  49.055  61.663  0.00  0.00     0.001 A 
HETATM   28  C   UNK N   1      27.833  48.954  61.425  0.00  0.00     0.000 A 
HETATM   29  C   UNK N   1      27.151  47.778  61.750  0.00  0.00     0.001 A 
HETATM   30  C   UNK N   1      27.840  46.702  62.311  0.00  0.00     0.017 A 
ENDBRANCH  23  25
ENDBRANCH  22  23
ENDBRANCH  10  22
BRANCH   8  31
HETATM   31  O   UNK N   1      31.878  42.157  59.104  0.00  0.00    -0.306 OA
BRANCH  31  32
HETATM   32  C   UNK N   1      32.663  42.791  58.188  0.00  0.00     0.255 C 
HETATM   33  O   UNK N   1      33.783  43.181  58.475  0.00  0.00    -0.266 OA
HETATM   34  C   UNK N   1      32.125  43.044  56.819  0.00  0.00     0.126 C 
ENDBRANCH  31  32
ENDBRANCH   8  31
BRANCH   7  35
HETATM   35  O   UNK N   1      30.363  40.541  60.935  0.00  0.00    -0.309 OA
BRANCH  35  36
HETATM   36  C   UNK N   1      29.709  39.767  61.847  0.00  0.00     0.255 C 
HETATM   37  O   UNK N   1      29.599  40.121  63.013  0.00  0.00    -0.266 OA
HETATM   38  C   UNK N   1      29.107  38.470  61.412  0.00  0.00     0.126 C 
ENDBRANCH  35  36
ENDBRANCH   7  35
BRANCH  16  39
HETATM   39  O   UNK N   1      28.399  47.682  58.497  0.00  0.00    -0.311 OA
BRANCH  39  40
HETATM   40  C   UNK N   1      28.507  48.733  57.642  0.00  0.00     0.255 C 
HETATM   41  O   UNK N   1      27.869  48.762  56.600  0.00  0.00    -0.266 OA
HETATM   42  C   UNK N   1      29.438  49.853  57.976  0.00  0.00     0.126 C 
ENDBRANCH  39  40
ENDBRANCH  16  39
BRANCH   4  43
HETATM   43  O   UNK N   1      26.636  41.199  57.679  0.00  0.00    -0.391 OA
HETATM   44  H   UNK N   1      26.977  40.302  57.904  0.00  0.00     0.210 HD
ENDBRANCH   4  43
TORSDOF 10
ENDMDL
MODEL 8
REMARK VINA RESULT:      -4.2      2.191      6.451
REMARK  10 active torsions:
REMARK  status: ('A' for Active; 'I' for Inactive)
REMARK    1  A    between atoms: C_4  and  O_5 
REMARK    2  A    between atoms: C_9  and  O_10 
REMARK    3  A    between atoms: O_10  and  C_11 
REMARK    4  A    between atoms: C_14  and  O_15 
REMARK    5  A    between atoms: O_15  and  C_16 
REMARK    6  A    between atoms: C_20  and  O_21 
REMARK    7  A    between atoms: O_21  and  C_22 
REMARK    8  A    between atoms: C_22  and  C_24 
REMARK    9  A    between atoms: C_35  and  O_36 
REMARK   10  A    between atoms: O_36  and  C_37 
ROOT
HETATM    1  O   UNK N   1      27.704  40.088  54.572  0.00  0.00    -0.297 OA
HETATM    2  C   UNK N   1      28.845  40.413  54.865  0.00  0.00     0.140 C 
HETATM    3  C   UNK N   1      29.333  41.826  54.510  0.00  0.00     0.042 C 
HETATM    4  C   UNK N   1      28.352  42.893  55.124  0.00  0.00     0.156 C 
HETATM    5  C   UNK N   1      28.142  42.673  56.627  0.00  0.00     0.011 C 
HETATM    6  C   UNK N   1      26.974  42.455  57.302  0.00  0.00    -0.053 C 
HETATM    7  C   UNK N   1      27.026  42.354  58.828  0.00  0.00     0.196 C 
HETATM    8  C   UNK N   1      26.450  41.044  59.505  0.00  0.00     0.111 C 
HETATM    9  C   UNK N   1      27.261  39.706  59.303  0.00  0.00     0.076 C 
HETATM   10  C   UNK N   1      28.131  39.567  60.553  0.00  0.00     0.146 C 
HETATM   11  C   UNK N   1      27.157  40.004  61.651  0.00  0.00     0.015 C 
HETATM   12  C   UNK N   1      26.540  41.272  61.058  0.00  0.00     0.049 C 
HETATM   13  C   UNK N   1      27.796  40.206  63.028  0.00  0.00     0.012 C 
HETATM   14  C   UNK N   1      28.051  39.477  58.019  0.00  0.00    -0.011 C 
HETATM   15  C   UNK N   1      28.009  38.351  57.232  0.00  0.00    -0.057 C 
HETATM   16  C   UNK N   1      28.951  38.150  56.032  0.00  0.00     0.167 C 
HETATM   17  C   UNK N   1      29.740  39.392  55.546  0.00  0.00     0.116 C 
HETATM   18  C   UNK N   1      27.100  37.165  57.510  0.00  0.00     0.046 C 
HETATM   19  C   UNK N   1      25.629  42.407  56.608  0.00  0.00     0.046 C 
HETATM   20  C   UNK N   1      30.771  42.088  55.038  0.00  0.00     0.026 C 
HETATM   21  C   UNK N   1      29.392  41.977  52.972  0.00  0.00     0.026 C 
ENDROOT
BRANCH  10  22
HETATM   22  O   UNK N   1      29.224  40.418  60.480  0.00  0.00    -0.311 OA
BRANCH  22  23
HETATM   23  C   UNK N   1      30.506  40.000  60.291  0.00  0.00     0.293 C 
HETATM   24  O   UNK N   1      30.819  38.834  60.493  0.00  0.00    -0.259 OA
BRANCH  23  25
HETATM   25  C   UNK N   1      31.524  40.964  59.825  0.00  0.00     0.039 A 
HETATM   26  C   UNK N   1      32.860  40.857  60.252  0.00  0.00     0.017 A 
HETATM   27  C   UNK N   1      33.815  41.775  59.807  0.00  0.00     0.001 A 
HETATM   28  C   UNK N   1      33.447  42.802  58.935  0.00  0.00     0.000 A 
HETATM   29  C   UNK N   1      32.121  42.914  58.506  0.00  0.00     0.001 A 
HETATM   30  C   UNK N   1      31.163  42.000  58.948  0.00  0.00     0.017 A 
ENDBRANCH  23  25
ENDBRANCH  22  23
ENDBRANCH  10  22
BRANCH   8  31
HETATM   31  O   UNK N   1      25.144  40.857  59.054  0.00  0.00    -0.306 OA
BRANCH  31  32
HETATM   32  C   UNK N   1      24.427  39.700  58.987  0.00  0.00     0.255 C 
HETATM   33  O   UNK N   1      24.112  39.089  59.995  0.00  0.00    -0.266 OA
HETATM   34  C   UNK N   1      24.051  39.154  57.649  0.00  0.00     0.126 C 
ENDBRANCH  31  32
ENDBRANCH   8  31
BRANCH   7  35
HETATM   35  O   UNK N   1      26.333  43.461  59.306  0.00  0.00    -0.309 OA
BRANCH  35  36
HETATM   36  C   UNK N   1      26.887  44.683  59.551  0.00  0.00     0.255 C 
HETATM   37  O   UNK N   1      26.248  45.712  59.382  0.00  0.00    -0.266 OA
HETATM   38  C   UNK N   1      28.295  44.763  60.047  0.00  0.00     0.126 C 
ENDBRANCH  35  36
ENDBRANCH   7  35
BRANCH  16  39
HETATM   39  O   UNK N   1      29.838  37.143  56.376  0.00  0.00    -0.311 OA
BRANCH  39  40
HETATM   40  C   UNK N   1      30.105  36.057  55.604  0.00  0.00     0.255 C 
HETATM   41  O   UNK N   1      31.232  35.586  55.551  0.00  0.00    -0.266 OA
HETATM   42  C   UNK N   1      29.006  35.450  54.794  0.00  0.00     0.126 C 
ENDBRANCH  39  40
ENDBRANCH  16  39
BRANCH   4  43
HETATM   43  O   UNK N   1      27.151  43.033  54.399  0.00  0.00    -0.391 OA
HETATM   44  H   UNK N   1      27.003  42.249  53.821  0.00  0.00     0.210 HD
ENDBRANCH   4  43
TORSDOF 10
ENDMDL
MODEL 9
REMARK VINA RESULT:      -4.2      2.921      7.733
REMARK  10 active torsions:
REMARK  status: ('A' for Active; 'I' for Inactive)
REMARK    1  A    between atoms: C_4  and  O_5 
REMARK    2  A    between atoms: C_9  and  O_10 
REMARK    3  A    between atoms: O_10  and  C_11 
REMARK    4  A    between atoms: C_14  and  O_15 
REMARK    5  A    between atoms: O_15  and  C_16 
REMARK    6  A    between atoms: C_20  and  O_21 
REMARK    7  A    between atoms: O_21  and  C_22 
REMARK    8  A    between atoms: C_22  and  C_24 
REMARK    9  A    between atoms: C_35  and  O_36 
REMARK   10  A    between atoms: O_36  and  C_37 
ROOT
HETATM    1  O   UNK N   1      29.939  48.057  60.036  0.00  0.00    -0.297 OA
HETATM    2  C   UNK N   1      28.787  47.676  60.187  0.00  0.00     0.140 C 
HETATM    3  C   UNK N   1      27.809  47.772  59.006  0.00  0.00     0.042 C 
HETATM    4  C   UNK N   1      28.409  47.019  57.760  0.00  0.00     0.156 C 
HETATM    5  C   UNK N   1      28.817  45.582  58.108  0.00  0.00     0.011 C 
HETATM    6  C   UNK N   1      30.043  44.992  57.990  0.00  0.00    -0.053 C 
HETATM    7  C   UNK N   1      30.168  43.504  58.325  0.00  0.00     0.196 C 
HETATM    8  C   UNK N   1      31.223  43.077  59.426  0.00  0.00     0.111 C 
HETATM    9  C   UNK N   1      30.912  43.476  60.920  0.00  0.00     0.076 C 
HETATM   10  C   UNK N   1      30.262  42.239  61.543  0.00  0.00     0.146 C 
HETATM   11  C   UNK N   1      31.119  41.115  60.952  0.00  0.00     0.015 C 
HETATM   12  C   UNK N   1      31.200  41.505  59.475  0.00  0.00     0.049 C 
HETATM   13  C   UNK N   1      30.576  39.704  61.195  0.00  0.00     0.012 C 
HETATM   14  C   UNK N   1      30.139  44.754  61.227  0.00  0.00    -0.011 C 
HETATM   15  C   UNK N   1      30.498  45.720  62.136  0.00  0.00    -0.057 C 
HETATM   16  C   UNK N   1      29.581  46.905  62.483  0.00  0.00     0.167 C 
HETATM   17  C   UNK N   1      28.369  47.148  61.548  0.00  0.00     0.116 C 
HETATM   18  C   UNK N   1      31.784  45.675  62.945  0.00  0.00     0.046 C 
HETATM   19  C   UNK N   1      31.254  45.728  57.452  0.00  0.00     0.046 C 
HETATM   20  C   UNK N   1      26.423  47.161  59.356  0.00  0.00     0.026 C 
HETATM   21  C   UNK N   1      27.562  49.259  58.663  0.00  0.00     0.026 C 
ENDROOT
BRANCH  10  22
HETATM   22  O   UNK N   1      28.940  42.132  61.138  0.00  0.00    -0.311 OA
BRANCH  22  23
HETATM   23  C   UNK N   1      27.888  41.990  61.993  0.00  0.00     0.293 C 
HETATM   24  O   UNK N   1      27.689  40.928  62.567  0.00  0.00    -0.259 OA
BRANCH  23  25
HETATM   25  C   UNK N   1      26.990  43.138  62.235  0.00  0.00     0.039 A 
HETATM   26  C   UNK N   1      26.048  43.526  61.265  0.00  0.00     0.017 A 
HETATM   27  C   UNK N   1      25.203  44.614  61.503  0.00  0.00     0.001 A 
HETATM   28  C   UNK N   1      25.290  45.319  62.705  0.00  0.00     0.000 A 
HETATM   29  C   UNK N   1      26.224  44.939  63.673  0.00  0.00     0.001 A 
HETATM   30  C   UNK N   1      27.071  43.854  63.441  0.00  0.00     0.017 A 
ENDBRANCH  23  25
ENDBRANCH  22  23
ENDBRANCH  10  22
BRANCH   8  31
HETATM   31  O   UNK N   1      32.466  43.595  59.065  0.00  0.00    -0.306 OA
BRANCH  31  32
HETATM   32  C   UNK N   1      33.700  43.051  59.257  0.00  0.00     0.255 C 
HETATM   33  O   UNK N   1      34.305  42.513  58.343  0.00  0.00    -0.266 OA
HETATM   34  C   UNK N   1      34.307  43.083  60.620  0.00  0.00     0.126 C 
ENDBRANCH  31  32
ENDBRANCH   8  31
BRANCH   7  35
HETATM   35  O   UNK N   1      30.474  42.870  57.125  0.00  0.00    -0.309 OA
BRANCH  35  36
HETATM   36  C   UNK N   1      29.555  42.357  56.259  0.00  0.00     0.255 C 
HETATM   37  O   UNK N   1      28.361  42.365  56.526  0.00  0.00    -0.266 OA
HETATM   38  C   UNK N   1      30.013  41.788  54.955  0.00  0.00     0.126 C 
ENDBRANCH  35  36
ENDBRANCH   7  35
BRANCH  16  39
HETATM   39  O   UNK N   1      29.134  46.707  63.779  0.00  0.00    -0.311 OA
BRANCH  39  40
HETATM   40  C   UNK N   1      29.045  47.685  64.719  0.00  0.00     0.255 C 
HETATM   41  O   UNK N   1      28.113  47.713  65.510  0.00  0.00    -0.266 OA
HETATM   42  C   UNK N   1      30.091  48.750  64.765  0.00  0.00     0.126 C 
ENDBRANCH  39  40
ENDBRANCH  16  39
BRANCH   4  43
HETATM   43  O   UNK N   1      29.415  47.748  57.096  0.00  0.00    -0.391 OA
HETATM   44  H   UNK N   1      29.160  48.697  57.018  0.00  0.00     0.210 HD
ENDBRANCH   4  43
TORSDOF 10
ENDMDL
