MODEL 1
REMARK VINA RESULT:      -5.3      0.000      0.000
REMARK  9 active torsions:
REMARK  status: ('A' for Active; 'I' for Inactive)
REMARK    1  A    between atoms: C_2  and  O_3 
REMARK    2  A    between atoms: C_2  and  C_36 
REMARK    3  A    between atoms: O_3  and  C_4 
REMARK    4  A    between atoms: C_6  and  O_7 
REMARK    5  A    between atoms: O_7  and  C_8 
REMARK    6  A    between atoms: C_11  and  O_12 
REMARK    7  A    between atoms: O_12  and  C_13 
REMARK    8  A    between atoms: C_20  and  O_21 
REMARK    9  A    between atoms: C_24  and  O_25 
ROOT
HETATM    1  C   UNK N   1      29.532  40.444  58.201  0.00  0.00     0.146 C 
HETATM    2  C   UNK N   1      28.423  40.690  57.156  0.00  0.00     0.076 C 
HETATM    3  C   UNK N   1      28.394  39.343  56.384  0.00  0.00     0.107 C 
HETATM    4  C   UNK N   1      29.607  39.182  55.372  0.00  0.00     0.175 C 
HETATM    5  C   UNK N   1      29.748  40.292  54.260  0.00  0.00     0.036 C 
HETATM    6  C   UNK N   1      28.396  40.753  53.719  0.00  0.00    -0.023 C 
HETATM    7  C   UNK N   1      27.918  42.015  53.875  0.00  0.00    -0.019 C 
HETATM    8  C   UNK N   1      26.571  42.524  53.349  0.00  0.00    -0.004 C 
HETATM    9  C   UNK N   1      25.515  42.750  54.507  0.00  0.00     0.132 C 
HETATM   10  C   UNK N   1      25.827  43.788  55.625  0.00  0.00     0.069 C 
HETATM   11  C   UNK N   1      26.819  43.396  56.749  0.00  0.00     0.149 C 
HETATM   12  C   UNK N   1      26.354  42.183  57.589  0.00  0.00    -0.059 C 
HETATM   13  C   UNK N   1      27.068  41.028  57.779  0.00  0.00    -0.011 C 
HETATM   14  C   UNK N   1      25.023  42.308  58.299  0.00  0.00     0.046 C 
HETATM   15  C   UNK N   1      25.951  41.543  52.320  0.00  0.00     0.021 C 
HETATM   16  C   UNK N   1      26.850  43.842  52.588  0.00  0.00     0.021 C 
HETATM   17  C   UNK N   1      30.722  41.426  54.662  0.00  0.00     0.017 C 
HETATM   18  C   UNK N   1      28.519  38.316  57.546  0.00  0.00     0.049 C 
HETATM   19  C   UNK N   1      29.239  39.029  58.707  0.00  0.00     0.015 C 
HETATM   20  C   UNK N   1      30.474  38.292  59.226  0.00  0.00     0.012 C 
ENDROOT
BRANCH   1  21
HETATM   21  O   UNK N   1      29.558  41.333  59.260  0.00  0.00    -0.311 OA
BRANCH  21  22
HETATM   22  C   UNK N   1      30.604  42.120  59.620  0.00  0.00     0.293 C 
HETATM   23  O   UNK N   1      31.429  41.729  60.430  0.00  0.00    -0.259 OA
BRANCH  22  24
HETATM   24  C   UNK N   1      30.777  43.426  58.950  0.00  0.00     0.039 A 
HETATM   25  C   UNK N   1      30.006  44.532  59.352  0.00  0.00     0.017 A 
HETATM   26  C   UNK N   1      30.157  45.765  58.713  0.00  0.00     0.001 A 
HETATM   27  C   UNK N   1      31.062  45.900  57.657  0.00  0.00     0.000 A 
HETATM   28  C   UNK N   1      31.824  44.805  57.244  0.00  0.00     0.001 A 
HETATM   29  C   UNK N   1      31.693  43.574  57.893  0.00  0.00     0.017 A 
ENDBRANCH  22  24
ENDBRANCH  21  22
ENDBRANCH   1  21
BRANCH   3  30
HETATM   30  O   UNK N   1      27.169  39.210  55.721  0.00  0.00    -0.307 OA
BRANCH  30  31
HETATM   31  C   UNK N   1      26.302  38.157  55.793  0.00  0.00     0.255 C 
HETATM   32  O   UNK N   1      26.520  37.112  55.198  0.00  0.00    -0.266 OA
HETATM   33  C   UNK N   1      25.094  38.261  56.666  0.00  0.00     0.126 C 
ENDBRANCH  30  31
ENDBRANCH   3  30
BRANCH   4  34
HETATM   34  O   UNK N   1      29.510  37.933  54.777  0.00  0.00    -0.313 OA
BRANCH  34  35
HETATM   35  C   UNK N   1      30.519  37.020  54.748  0.00  0.00     0.255 C 
HETATM   36  O   UNK N   1      31.504  37.193  54.043  0.00  0.00    -0.266 OA
HETATM   37  C   UNK N   1      30.436  35.807  55.614  0.00  0.00     0.126 C 
ENDBRANCH  34  35
ENDBRANCH   4  34
BRANCH  11  38
HETATM   38  O   UNK N   1      26.932  44.485  57.631  0.00  0.00    -0.391 OA
HETATM   39  H   UNK N   1      27.335  44.148  58.476  0.00  0.00     0.210 HD
ENDBRANCH  11  38
BRANCH   9  40
HETATM   40  O   UNK N   1      24.310  43.165  53.907  0.00  0.00    -0.394 OA
HETATM   41  H   UNK N   1      23.563  42.767  54.429  0.00  0.00     0.210 HD
ENDBRANCH   9  40
TORSDOF 9
ENDMDL
MODEL 2
REMARK VINA RESULT:      -5.1      2.399      5.292
REMARK  9 active torsions:
REMARK  status: ('A' for Active; 'I' for Inactive)
REMARK    1  A    between atoms: C_2  and  O_3 
REMARK    2  A    between atoms: C_2  and  C_36 
REMARK    3  A    between atoms: O_3  and  C_4 
REMARK    4  A    between atoms: C_6  and  O_7 
REMARK    5  A    between atoms: O_7  and  C_8 
REMARK    6  A    between atoms: C_11  and  O_12 
REMARK    7  A    between atoms: O_12  and  C_13 
REMARK    8  A    between atoms: C_20  and  O_21 
REMARK    9  A    between atoms: C_24  and  O_25 
ROOT
HETATM    1  C   UNK N   1      29.434  44.936  60.433  0.00  0.00     0.146 C 
HETATM    2  C   UNK N   1      29.215  43.775  59.439  0.00  0.00     0.076 C 
HETATM    3  C   UNK N   1      30.470  42.894  59.682  0.00  0.00     0.107 C 
HETATM    4  C   UNK N   1      31.785  43.493  59.021  0.00  0.00     0.175 C 
HETATM    5  C   UNK N   1      31.743  43.733  57.463  0.00  0.00     0.036 C 
HETATM    6  C   UNK N   1      30.985  42.635  56.722  0.00  0.00    -0.023 C 
HETATM    7  C   UNK N   1      29.829  42.850  56.042  0.00  0.00    -0.019 C 
HETATM    8  C   UNK N   1      29.034  41.781  55.282  0.00  0.00    -0.004 C 
HETATM    9  C   UNK N   1      27.688  41.390  56.019  0.00  0.00     0.132 C 
HETATM   10  C   UNK N   1      26.604  42.483  56.247  0.00  0.00     0.069 C 
HETATM   11  C   UNK N   1      26.808  43.509  57.391  0.00  0.00     0.149 C 
HETATM   12  C   UNK N   1      26.881  42.864  58.794  0.00  0.00    -0.059 C 
HETATM   13  C   UNK N   1      27.916  43.007  59.682  0.00  0.00    -0.011 C 
HETATM   14  C   UNK N   1      25.684  42.049  59.239  0.00  0.00     0.046 C 
HETATM   15  C   UNK N   1      29.864  40.486  55.081  0.00  0.00     0.021 C 
HETATM   16  C   UNK N   1      28.749  42.345  53.870  0.00  0.00     0.021 C 
HETATM   17  C   UNK N   1      31.345  45.182  57.087  0.00  0.00     0.017 C 
HETATM   18  C   UNK N   1      30.580  42.929  61.233  0.00  0.00     0.049 C 
HETATM   19  C   UNK N   1      29.908  44.232  61.707  0.00  0.00     0.015 C 
HETATM   20  C   UNK N   1      30.790  45.103  62.601  0.00  0.00     0.012 C 
ENDROOT
BRANCH   1  21
HETATM   21  O   UNK N   1      28.316  45.706  60.702  0.00  0.00    -0.311 OA
BRANCH  21  22
HETATM   22  C   UNK N   1      27.662  46.502  59.818  0.00  0.00     0.293 C 
HETATM   23  O   UNK N   1      26.467  46.356  59.614  0.00  0.00    -0.259 OA
BRANCH  22  24
HETATM   24  C   UNK N   1      28.401  47.607  59.171  0.00  0.00     0.039 A 
HETATM   25  C   UNK N   1      28.740  47.525  57.809  0.00  0.00     0.017 A 
HETATM   26  C   UNK N   1      29.449  48.560  57.196  0.00  0.00     0.001 A 
HETATM   27  C   UNK N   1      29.844  49.675  57.940  0.00  0.00     0.000 A 
HETATM   28  C   UNK N   1      29.520  49.761  59.296  0.00  0.00     0.001 A 
HETATM   29  C   UNK N   1      28.792  48.738  59.911  0.00  0.00     0.017 A 
ENDBRANCH  22  24
ENDBRANCH  21  22
ENDBRANCH   1  21
BRANCH   3  30
HETATM   30  O   UNK N   1      30.228  41.595  59.220  0.00  0.00    -0.307 OA
BRANCH  30  31
HETATM   31  C   UNK N   1      30.374  40.431  59.919  0.00  0.00     0.255 C 
HETATM   32  O   UNK N   1      31.480  40.003  60.217  0.00  0.00    -0.266 OA
HETATM   33  C   UNK N   1      29.158  39.697  60.384  0.00  0.00     0.126 C 
ENDBRANCH  30  31
ENDBRANCH   3  30
BRANCH   4  34
HETATM   34  O   UNK N   1      32.846  42.659  59.339  0.00  0.00    -0.313 OA
BRANCH  34  35
HETATM   35  C   UNK N   1      34.072  43.097  59.737  0.00  0.00     0.255 C 
HETATM   36  O   UNK N   1      34.947  43.347  58.919  0.00  0.00    -0.266 OA
HETATM   37  C   UNK N   1      34.339  43.310  61.190  0.00  0.00     0.126 C 
ENDBRANCH  34  35
ENDBRANCH   4  34
BRANCH  11  38
HETATM   38  O   UNK N   1      25.706  44.382  57.398  0.00  0.00    -0.391 OA
HETATM   39  H   UNK N   1      25.941  45.168  56.837  0.00  0.00     0.210 HD
ENDBRANCH  11  38
BRANCH   9  40
HETATM   40  O   UNK N   1      27.071  40.373  55.264  0.00  0.00    -0.394 OA
HETATM   41  H   UNK N   1      27.691  39.596  55.245  0.00  0.00     0.210 HD
ENDBRANCH   9  40
TORSDOF 9
ENDMDL
MODEL 3
REMARK VINA RESULT:      -5.1      2.783      5.776
REMARK  9 active torsions:
REMARK  status: ('A' for Active; 'I' for Inactive)
REMARK    1  A    between atoms: C_2  and  O_3 
REMARK    2  A    between atoms: C_2  and  C_36 
REMARK    3  A    between atoms: O_3  and  C_4 
REMARK    4  A    between atoms: C_6  and  O_7 
REMARK    5  A    between atoms: O_7  and  C_8 
REMARK    6  A    between atoms: C_11  and  O_12 
REMARK    7  A    between atoms: O_12  and  C_13 
REMARK    8  A    between atoms: C_20  and  O_21 
REMARK    9  A    between atoms: C_24  and  O_25 
ROOT
HETATM    1  C   UNK N   1      29.695  46.083  60.373  0.00  0.00     0.146 C 
HETATM    2  C   UNK N   1      29.204  44.819  59.635  0.00  0.00     0.076 C 
HETATM    3  C   UNK N   1      30.077  43.705  60.273  0.00  0.00     0.107 C 
HETATM    4  C   UNK N   1      31.570  43.701  59.731  0.00  0.00     0.175 C 
HETATM    5  C   UNK N   1      31.753  43.528  58.174  0.00  0.00     0.036 C 
HETATM    6  C   UNK N   1      30.752  42.545  57.573  0.00  0.00    -0.023 C 
HETATM    7  C   UNK N   1      29.796  42.904  56.676  0.00  0.00    -0.019 C 
HETATM    8  C   UNK N   1      28.772  41.954  56.044  0.00  0.00    -0.004 C 
HETATM    9  C   UNK N   1      27.310  42.179  56.609  0.00  0.00     0.132 C 
HETATM   10  C   UNK N   1      26.623  43.561  56.405  0.00  0.00     0.069 C 
HETATM   11  C   UNK N   1      27.043  44.743  57.315  0.00  0.00     0.149 C 
HETATM   12  C   UNK N   1      26.771  44.494  58.817  0.00  0.00    -0.059 C 
HETATM   13  C   UNK N   1      27.709  44.555  59.815  0.00  0.00    -0.011 C 
HETATM   14  C   UNK N   1      25.339  44.210  59.218  0.00  0.00     0.046 C 
HETATM   15  C   UNK N   1      29.151  40.468  56.274  0.00  0.00     0.021 C 
HETATM   16  C   UNK N   1      28.818  42.189  54.515  0.00  0.00     0.021 C 
HETATM   17  C   UNK N   1      31.884  44.879  57.430  0.00  0.00     0.017 C 
HETATM   18  C   UNK N   1      30.048  44.109  61.775  0.00  0.00     0.049 C 
HETATM   19  C   UNK N   1      29.794  45.628  61.833  0.00  0.00     0.015 C 
HETATM   20  C   UNK N   1      30.824  46.406  62.651  0.00  0.00     0.012 C 
ENDROOT
BRANCH   1  21
HETATM   21  O   UNK N   1      28.868  47.187  60.274  0.00  0.00    -0.311 OA
BRANCH  21  22
HETATM   22  C   UNK N   1      29.270  48.480  60.172  0.00  0.00     0.293 C 
HETATM   23  O   UNK N   1      29.509  49.140  61.171  0.00  0.00    -0.259 OA
BRANCH  22  24
HETATM   24  C   UNK N   1      29.495  49.052  58.828  0.00  0.00     0.039 A 
HETATM   25  C   UNK N   1      30.231  48.333  57.870  0.00  0.00     0.017 A 
HETATM   26  C   UNK N   1      30.457  48.875  56.602  0.00  0.00     0.001 A 
HETATM   27  C   UNK N   1      29.970  50.146  56.287  0.00  0.00     0.000 A 
HETATM   28  C   UNK N   1      29.246  50.872  57.236  0.00  0.00     0.001 A 
HETATM   29  C   UNK N   1      28.998  50.327  58.499  0.00  0.00     0.017 A 
ENDBRANCH  22  24
ENDBRANCH  21  22
ENDBRANCH   1  21
BRANCH   3  30
HETATM   30  O   UNK N   1      29.470  42.461  60.072  0.00  0.00    -0.307 OA
BRANCH  30  31
HETATM   31  C   UNK N   1      29.191  41.516  61.018  0.00  0.00     0.255 C 
HETATM   32  O   UNK N   1      30.065  40.790  61.469  0.00  0.00    -0.266 OA
HETATM   33  C   UNK N   1      27.802  41.409  61.560  0.00  0.00     0.126 C 
ENDBRANCH  30  31
ENDBRANCH   3  30
BRANCH   4  34
HETATM   34  O   UNK N   1      32.269  42.706  60.399  0.00  0.00    -0.313 OA
BRANCH  34  35
HETATM   35  C   UNK N   1      33.593  42.447  60.217  0.00  0.00     0.255 C 
HETATM   36  O   UNK N   1      34.440  43.293  60.469  0.00  0.00    -0.266 OA
HETATM   37  C   UNK N   1      34.017  41.099  59.737  0.00  0.00     0.126 C 
ENDBRANCH  34  35
ENDBRANCH   4  34
BRANCH  11  38
HETATM   38  O   UNK N   1      26.288  45.870  56.945  0.00  0.00    -0.391 OA
HETATM   39  H   UNK N   1      25.997  45.742  56.002  0.00  0.00     0.210 HD
ENDBRANCH  11  38
BRANCH   9  40
HETATM   40  O   UNK N   1      26.469  41.227  56.000  0.00  0.00    -0.394 OA
HETATM   41  H   UNK N   1      26.725  41.171  55.041  0.00  0.00     0.210 HD
ENDBRANCH   9  40
TORSDOF 9
ENDMDL
MODEL 4
REMARK VINA RESULT:      -4.9      2.412      6.948
REMARK  9 active torsions:
REMARK  status: ('A' for Active; 'I' for Inactive)
REMARK    1  A    between atoms: C_2  and  O_3 
REMARK    2  A    between atoms: C_2  and  C_36 
REMARK    3  A    between atoms: O_3  and  C_4 
REMARK    4  A    between atoms: C_6  and  O_7 
REMARK    5  A    between atoms: O_7  and  C_8 
REMARK    6  A    between atoms: C_11  and  O_12 
REMARK    7  A    between atoms: O_12  and  C_13 
REMARK    8  A    between atoms: C_20  and  O_21 
REMARK    9  A    between atoms: C_24  and  O_25 
ROOT
HETATM    1  C   UNK N   1      29.434  40.968  56.503  0.00  0.00     0.146 C 
HETATM    2  C   UNK N   1      28.805  41.620  57.753  0.00  0.00     0.076 C 
HETATM    3  C   UNK N   1      29.880  42.667  58.154  0.00  0.00     0.107 C 
HETATM    4  C   UNK N   1      31.143  42.017  58.865  0.00  0.00     0.175 C 
HETATM    5  C   UNK N   1      30.862  41.190  60.179  0.00  0.00     0.036 C 
HETATM    6  C   UNK N   1      29.774  41.819  61.045  0.00  0.00    -0.023 C 
HETATM    7  C   UNK N   1      28.579  41.223  61.298  0.00  0.00    -0.019 C 
HETATM    8  C   UNK N   1      27.459  41.814  62.162  0.00  0.00    -0.004 C 
HETATM    9  C   UNK N   1      26.223  42.300  61.301  0.00  0.00     0.132 C 
HETATM   10  C   UNK N   1      25.442  41.260  60.443  0.00  0.00     0.069 C 
HETATM   11  C   UNK N   1      26.058  40.789  59.101  0.00  0.00     0.149 C 
HETATM   12  C   UNK N   1      26.257  41.931  58.078  0.00  0.00    -0.059 C 
HETATM   13  C   UNK N   1      27.446  42.265  57.481  0.00  0.00    -0.011 C 
HETATM   14  C   UNK N   1      25.024  42.707  57.665  0.00  0.00     0.046 C 
HETATM   15  C   UNK N   1      27.959  43.018  63.003  0.00  0.00     0.021 C 
HETATM   16  C   UNK N   1      27.037  40.718  63.169  0.00  0.00     0.021 C 
HETATM   17  C   UNK N   1      30.702  39.673  59.912  0.00  0.00     0.017 C 
HETATM   18  C   UNK N   1      30.280  43.248  56.767  0.00  0.00     0.049 C 
HETATM   19  C   UNK N   1      29.984  42.161  55.716  0.00  0.00     0.015 C 
HETATM   20  C   UNK N   1      31.173  41.813  54.821  0.00  0.00     0.012 C 
ENDROOT
BRANCH   1  21
HETATM   21  O   UNK N   1      28.564  40.237  55.714  0.00  0.00    -0.311 OA
BRANCH  21  22
HETATM   22  C   UNK N   1      28.076  39.002  55.993  0.00  0.00     0.293 C 
HETATM   23  O   UNK N   1      26.910  38.852  56.324  0.00  0.00    -0.259 OA
BRANCH  22  24
HETATM   24  C   UNK N   1      28.956  37.829  55.808  0.00  0.00     0.039 A 
HETATM   25  C   UNK N   1      28.868  36.736  56.689  0.00  0.00     0.017 A 
HETATM   26  C   UNK N   1      29.707  35.631  56.526  0.00  0.00     0.001 A 
HETATM   27  C   UNK N   1      30.652  35.615  55.497  0.00  0.00     0.000 A 
HETATM   28  C   UNK N   1      30.753  36.700  54.623  0.00  0.00     0.001 A 
HETATM   29  C   UNK N   1      29.903  37.801  54.768  0.00  0.00     0.017 A 
ENDBRANCH  22  24
ENDBRANCH  21  22
ENDBRANCH   1  21
BRANCH   3  30
HETATM   30  O   UNK N   1      29.300  43.648  58.965  0.00  0.00    -0.307 OA
BRANCH  30  31
HETATM   31  C   UNK N   1      29.251  44.992  58.729  0.00  0.00     0.255 C 
HETATM   32  O   UNK N   1      28.291  45.506  58.173  0.00  0.00    -0.266 OA
HETATM   33  C   UNK N   1      30.365  45.862  59.213  0.00  0.00     0.126 C 
ENDBRANCH  30  31
ENDBRANCH   3  30
BRANCH   4  34
HETATM   34  O   UNK N   1      32.054  43.027  59.134  0.00  0.00    -0.313 OA
BRANCH  34  35
HETATM   35  C   UNK N   1      33.397  42.836  59.246  0.00  0.00     0.255 C 
HETATM   36  O   UNK N   1      34.086  42.616  58.258  0.00  0.00    -0.266 OA
HETATM   37  C   UNK N   1      34.042  42.932  60.588  0.00  0.00     0.126 C 
ENDBRANCH  34  35
ENDBRANCH   4  34
BRANCH  11  38
HETATM   38  O   UNK N   1      25.175  39.864  58.516  0.00  0.00    -0.391 OA
HETATM   39  H   UNK N   1      25.396  39.807  57.548  0.00  0.00     0.210 HD
ENDBRANCH  11  38
BRANCH   9  40
HETATM   40  O   UNK N   1      25.284  42.865  62.186  0.00  0.00    -0.394 OA
HETATM   41  H   UNK N   1      25.090  42.189  62.888  0.00  0.00     0.210 HD
ENDBRANCH   9  40
TORSDOF 9
ENDMDL
MODEL 5
REMARK VINA RESULT:      -4.9      1.824      6.041
REMARK  9 active torsions:
REMARK  status: ('A' for Active; 'I' for Inactive)
REMARK    1  A    between atoms: C_2  and  O_3 
REMARK    2  A    between atoms: C_2  and  C_36 
REMARK    3  A    between atoms: O_3  and  C_4 
REMARK    4  A    between atoms: C_6  and  O_7 
REMARK    5  A    between atoms: O_7  and  C_8 
REMARK    6  A    between atoms: C_11  and  O_12 
REMARK    7  A    between atoms: O_12  and  C_13 
REMARK    8  A    between atoms: C_20  and  O_21 
REMARK    9  A    between atoms: C_24  and  O_25 
ROOT
HETATM    1  C   UNK N   1      26.739  43.054  56.079  0.00  0.00     0.146 C 
HETATM    2  C   UNK N   1      27.137  41.573  56.250  0.00  0.00     0.076 C 
HETATM    3  C   UNK N   1      28.461  41.678  57.054  0.00  0.00     0.107 C 
HETATM    4  C   UNK N   1      29.694  42.128  56.161  0.00  0.00     0.175 C 
HETATM    5  C   UNK N   1      30.036  41.213  54.921  0.00  0.00     0.036 C 
HETATM    6  C   UNK N   1      29.848  39.728  55.220  0.00  0.00    -0.023 C 
HETATM    7  C   UNK N   1      28.921  38.951  54.603  0.00  0.00    -0.019 C 
HETATM    8  C   UNK N   1      28.698  37.457  54.868  0.00  0.00    -0.004 C 
HETATM    9  C   UNK N   1      27.357  37.177  55.662  0.00  0.00     0.132 C 
HETATM   10  C   UNK N   1      25.998  37.588  55.023  0.00  0.00     0.069 C 
HETATM   11  C   UNK N   1      25.581  39.081  55.055  0.00  0.00     0.149 C 
HETATM   12  C   UNK N   1      25.423  39.648  56.484  0.00  0.00    -0.059 C 
HETATM   13  C   UNK N   1      26.082  40.743  56.982  0.00  0.00    -0.011 C 
HETATM   14  C   UNK N   1      24.417  38.966  57.387  0.00  0.00     0.046 C 
HETATM   15  C   UNK N   1      29.870  36.837  55.674  0.00  0.00     0.021 C 
HETATM   16  C   UNK N   1      28.686  36.749  53.493  0.00  0.00     0.021 C 
HETATM   17  C   UNK N   1      29.384  41.712  53.608  0.00  0.00     0.017 C 
HETATM   18  C   UNK N   1      28.109  42.786  58.088  0.00  0.00     0.049 C 
HETATM   19  C   UNK N   1      27.002  43.657  57.463  0.00  0.00     0.015 C 
HETATM   20  C   UNK N   1      27.321  45.152  57.433  0.00  0.00     0.012 C 
ENDROOT
BRANCH   1  21
HETATM   21  O   UNK N   1      25.426  43.278  55.705  0.00  0.00    -0.311 OA
BRANCH  21  22
HETATM   22  C   UNK N   1      25.007  43.764  54.509  0.00  0.00     0.293 C 
HETATM   23  O   UNK N   1      24.226  44.701  54.456  0.00  0.00    -0.259 OA
BRANCH  22  24
HETATM   24  C   UNK N   1      25.576  43.195  53.269  0.00  0.00     0.039 A 
HETATM   25  C   UNK N   1      25.187  41.913  52.838  0.00  0.00     0.017 A 
HETATM   26  C   UNK N   1      25.732  41.367  51.674  0.00  0.00     0.001 A 
HETATM   27  C   UNK N   1      26.682  42.083  50.942  0.00  0.00     0.000 A 
HETATM   28  C   UNK N   1      27.081  43.352  51.367  0.00  0.00     0.001 A 
HETATM   29  C   UNK N   1      26.525  43.915  52.520  0.00  0.00     0.017 A 
ENDBRANCH  22  24
ENDBRANCH  21  22
ENDBRANCH   1  21
BRANCH   3  30
HETATM   30  O   UNK N   1      28.722  40.459  57.689  0.00  0.00    -0.307 OA
BRANCH  30  31
HETATM   31  C   UNK N   1      29.012  40.261  59.009  0.00  0.00     0.255 C 
HETATM   32  O   UNK N   1      30.128  40.488  59.455  0.00  0.00    -0.266 OA
HETATM   33  C   UNK N   1      27.930  39.819  59.939  0.00  0.00     0.126 C 
ENDBRANCH  30  31
ENDBRANCH   3  30
BRANCH   4  34
HETATM   34  O   UNK N   1      30.806  42.236  56.983  0.00  0.00    -0.313 OA
BRANCH  34  35
HETATM   35  C   UNK N   1      31.733  43.229  56.889  0.00  0.00     0.255 C 
HETATM   36  O   UNK N   1      32.554  43.239  55.981  0.00  0.00    -0.266 OA
HETATM   37  C   UNK N   1      31.725  44.337  57.888  0.00  0.00     0.126 C 
ENDBRANCH  34  35
ENDBRANCH   4  34
BRANCH  11  38
HETATM   38  O   UNK N   1      24.329  39.199  54.426  0.00  0.00    -0.391 OA
HETATM   39  H   UNK N   1      23.841  38.343  54.562  0.00  0.00     0.210 HD
ENDBRANCH  11  38
BRANCH   9  40
HETATM   40  O   UNK N   1      27.281  35.789  55.892  0.00  0.00    -0.394 OA
HETATM   41  H   UNK N   1      27.186  35.653  56.872  0.00  0.00     0.210 HD
ENDBRANCH   9  40
TORSDOF 9
ENDMDL
MODEL 6
REMARK VINA RESULT:      -4.8      2.447      4.791
REMARK  9 active torsions:
REMARK  status: ('A' for Active; 'I' for Inactive)
REMARK    1  A    between atoms: C_2  and  O_3 
REMARK    2  A    between atoms: C_2  and  C_36 
REMARK    3  A    between atoms: O_3  and  C_4 
REMARK    4  A    between atoms: C_6  and  O_7 
REMARK    5  A    between atoms: O_7  and  C_8 
REMARK    6  A    between atoms: C_11  and  O_12 
REMARK    7  A    between atoms: O_12  and  C_13 
REMARK    8  A    between atoms: C_20  and  O_21 
REMARK    9  A    between atoms: C_24  and  O_25 
ROOT
HETATM    1  C   UNK N   1      29.652  40.481  59.066  0.00  0.00     0.146 C 
HETATM    2  C   UNK N   1      28.901  41.829  59.042  0.00  0.00     0.076 C 
HETATM    3  C   UNK N   1      28.514  41.964  57.544  0.00  0.00     0.107 C 
HETATM    4  C   UNK N   1      29.738  42.386  56.624  0.00  0.00     0.175 C 
HETATM    5  C   UNK N   1      30.458  43.742  56.988  0.00  0.00     0.036 C 
HETATM    6  C   UNK N   1      29.479  44.820  57.448  0.00  0.00    -0.023 C 
HETATM    7  C   UNK N   1      29.473  45.341  58.702  0.00  0.00    -0.019 C 
HETATM    8  C   UNK N   1      28.512  46.424  59.208  0.00  0.00    -0.004 C 
HETATM    9  C   UNK N   1      27.432  45.852  60.214  0.00  0.00     0.132 C 
HETATM   10  C   UNK N   1      27.907  45.206  61.549  0.00  0.00     0.069 C 
HETATM   11  C   UNK N   1      28.484  43.768  61.517  0.00  0.00     0.149 C 
HETATM   12  C   UNK N   1      27.476  42.709  61.015  0.00  0.00    -0.059 C 
HETATM   13  C   UNK N   1      27.678  41.858  59.959  0.00  0.00    -0.011 C 
HETATM   14  C   UNK N   1      26.182  42.569  61.789  0.00  0.00     0.046 C 
HETATM   15  C   UNK N   1      27.761  47.114  58.039  0.00  0.00     0.021 C 
HETATM   16  C   UNK N   1      29.375  47.517  59.882  0.00  0.00     0.021 C 
HETATM   17  C   UNK N   1      31.696  43.541  57.897  0.00  0.00     0.017 C 
HETATM   18  C   UNK N   1      28.060  40.515  57.209  0.00  0.00     0.049 C 
HETATM   19  C   UNK N   1      28.783  39.572  58.190  0.00  0.00     0.015 C 
HETATM   20  C   UNK N   1      29.559  38.441  57.517  0.00  0.00     0.012 C 
ENDROOT
BRANCH   1  21
HETATM   21  O   UNK N   1      29.820  39.916  60.317  0.00  0.00    -0.311 OA
BRANCH  21  22
HETATM   22  C   UNK N   1      30.512  40.457  61.352  0.00  0.00     0.293 C 
HETATM   23  O   UNK N   1      30.167  40.255  62.506  0.00  0.00    -0.259 OA
BRANCH  22  24
HETATM   24  C   UNK N   1      31.743  41.224  61.064  0.00  0.00     0.039 A 
HETATM   25  C   UNK N   1      31.924  42.502  61.622  0.00  0.00     0.017 A 
HETATM   26  C   UNK N   1      33.079  43.235  61.342  0.00  0.00     0.001 A 
HETATM   27  C   UNK N   1      34.053  42.709  60.489  0.00  0.00     0.000 A 
HETATM   28  C   UNK N   1      33.877  41.445  59.922  0.00  0.00     0.001 A 
HETATM   29  C   UNK N   1      32.733  40.696  60.215  0.00  0.00     0.017 A 
ENDBRANCH  22  24
ENDBRANCH  21  22
ENDBRANCH   1  21
BRANCH   3  30
HETATM   30  O   UNK N   1      27.456  42.870  57.414  0.00  0.00    -0.307 OA
BRANCH  30  31
HETATM   31  C   UNK N   1      26.268  42.663  56.772  0.00  0.00     0.255 C 
HETATM   32  O   UNK N   1      26.187  42.705  55.553  0.00  0.00    -0.266 OA
HETATM   33  C   UNK N   1      25.054  42.316  57.572  0.00  0.00     0.126 C 
ENDBRANCH  30  31
ENDBRANCH   3  30
BRANCH   4  34
HETATM   34  O   UNK N   1      29.295  42.429  55.310  0.00  0.00    -0.313 OA
BRANCH  34  35
HETATM   35  C   UNK N   1      29.937  41.837  54.267  0.00  0.00     0.255 C 
HETATM   36  O   UNK N   1      30.890  41.092  54.455  0.00  0.00    -0.266 OA
HETATM   37  C   UNK N   1      29.449  42.072  52.876  0.00  0.00     0.126 C 
ENDBRANCH  34  35
ENDBRANCH   4  34
BRANCH  11  38
HETATM   38  O   UNK N   1      28.835  43.408  62.830  0.00  0.00    -0.391 OA
HETATM   39  H   UNK N   1      29.536  42.705  62.773  0.00  0.00     0.210 HD
ENDBRANCH  11  38
BRANCH   9  40
HETATM   40  O   UNK N   1      26.580  46.916  60.571  0.00  0.00    -0.394 OA
HETATM   41  H   UNK N   1      26.465  47.490  59.768  0.00  0.00     0.210 HD
ENDBRANCH   9  40
TORSDOF 9
ENDMDL
MODEL 7
REMARK VINA RESULT:      -4.7      2.563      7.751
REMARK  9 active torsions:
REMARK  status: ('A' for Active; 'I' for Inactive)
REMARK    1  A    between atoms: C_2  and  O_3 
REMARK    2  A    between atoms: C_2  and  C_36 
REMARK    3  A    between atoms: O_3  and  C_4 
REMARK    4  A    between atoms: C_6  and  O_7 
REMARK    5  A    between atoms: O_7  and  C_8 
REMARK    6  A    between atoms: C_11  and  O_12 
REMARK    7  A    between atoms: O_12  and  C_13 
REMARK    8  A    between atoms: C_20  and  O_21 
REMARK    9  A    between atoms: C_24  and  O_25 
ROOT
HETATM    1  C   UNK N   1      28.131  42.699  56.874  0.00  0.00     0.146 C 
HETATM    2  C   UNK N   1      28.589  42.903  58.334  0.00  0.00     0.076 C 
HETATM    3  C   UNK N   1      27.980  44.289  58.679  0.00  0.00     0.107 C 
HETATM    4  C   UNK N   1      28.783  45.497  58.034  0.00  0.00     0.175 C 
HETATM    5  C   UNK N   1      30.310  45.611  58.414  0.00  0.00     0.036 C 
HETATM    6  C   UNK N   1      30.578  45.247  59.872  0.00  0.00    -0.023 C 
HETATM    7  C   UNK N   1      31.323  44.177  60.252  0.00  0.00    -0.019 C 
HETATM    8  C   UNK N   1      31.621  43.773  61.701  0.00  0.00    -0.004 C 
HETATM    9  C   UNK N   1      30.831  42.474  62.143  0.00  0.00     0.132 C 
HETATM   10  C   UNK N   1      31.088  41.138  61.387  0.00  0.00     0.069 C 
HETATM   11  C   UNK N   1      30.438  40.932  59.995  0.00  0.00     0.149 C 
HETATM   12  C   UNK N   1      28.892  40.967  60.023  0.00  0.00    -0.059 C 
HETATM   13  C   UNK N   1      28.102  41.806  59.281  0.00  0.00    -0.011 C 
HETATM   14  C   UNK N   1      28.198  39.952  60.908  0.00  0.00     0.046 C 
HETATM   15  C   UNK N   1      31.267  44.910  62.696  0.00  0.00     0.021 C 
HETATM   16  C   UNK N   1      33.149  43.556  61.806  0.00  0.00     0.021 C 
HETATM   17  C   UNK N   1      31.240  44.931  57.379  0.00  0.00     0.017 C 
HETATM   18  C   UNK N   1      26.566  44.175  58.040  0.00  0.00     0.049 C 
HETATM   19  C   UNK N   1      26.667  43.151  56.893  0.00  0.00     0.015 C 
HETATM   20  C   UNK N   1      26.165  43.667  55.545  0.00  0.00     0.012 C 
ENDROOT
BRANCH   1  21
HETATM   21  O   UNK N   1      28.223  41.403  56.399  0.00  0.00    -0.311 OA
BRANCH  21  22
HETATM   22  C   UNK N   1      29.018  40.978  55.384  0.00  0.00     0.293 C 
HETATM   23  O   UNK N   1      29.970  40.245  55.603  0.00  0.00    -0.259 OA
BRANCH  22  24
HETATM   24  C   UNK N   1      28.664  41.347  53.997  0.00  0.00     0.039 A 
HETATM   25  C   UNK N   1      27.497  40.829  53.406  0.00  0.00     0.017 A 
HETATM   26  C   UNK N   1      27.165  41.165  52.092  0.00  0.00     0.001 A 
HETATM   27  C   UNK N   1      28.002  42.003  51.350  0.00  0.00     0.000 A 
HETATM   28  C   UNK N   1      29.168  42.514  51.926  0.00  0.00     0.001 A 
HETATM   29  C   UNK N   1      29.496  42.198  53.247  0.00  0.00     0.017 A 
ENDBRANCH  22  24
ENDBRANCH  21  22
ENDBRANCH   1  21
BRANCH   3  30
HETATM   30  O   UNK N   1      27.897  44.431  60.069  0.00  0.00    -0.307 OA
BRANCH  30  31
HETATM   31  C   UNK N   1      26.792  44.764  60.799  0.00  0.00     0.255 C 
HETATM   32  O   UNK N   1      26.388  45.916  60.852  0.00  0.00    -0.266 OA
HETATM   33  C   UNK N   1      26.023  43.689  61.498  0.00  0.00     0.126 C 
ENDBRANCH  30  31
ENDBRANCH   3  30
BRANCH   4  34
HETATM   34  O   UNK N   1      28.129  46.675  58.363  0.00  0.00    -0.313 OA
BRANCH  34  35
HETATM   35  C   UNK N   1      27.694  47.589  57.453  0.00  0.00     0.255 C 
HETATM   36  O   UNK N   1      26.545  47.560  57.032  0.00  0.00    -0.266 OA
HETATM   37  C   UNK N   1      28.622  48.662  56.990  0.00  0.00     0.126 C 
ENDBRANCH  34  35
ENDBRANCH   4  34
BRANCH  11  38
HETATM   38  O   UNK N   1      30.810  39.662  59.521  0.00  0.00    -0.391 OA
HETATM   39  H   UNK N   1      31.697  39.442  59.914  0.00  0.00     0.210 HD
ENDBRANCH  11  38
BRANCH   9  40
HETATM   40  O   UNK N   1      31.140  42.229  63.495  0.00  0.00    -0.394 OA
HETATM   41  H   UNK N   1      30.516  41.528  63.822  0.00  0.00     0.210 HD
ENDBRANCH   9  40
TORSDOF 9
ENDMDL
MODEL 8
REMARK VINA RESULT:      -4.7      2.033      6.234
REMARK  9 active torsions:
REMARK  status: ('A' for Active; 'I' for Inactive)
REMARK    1  A    between atoms: C_2  and  O_3 
REMARK    2  A    between atoms: C_2  and  C_36 
REMARK    3  A    between atoms: O_3  and  C_4 
REMARK    4  A    between atoms: C_6  and  O_7 
REMARK    5  A    between atoms: O_7  and  C_8 
REMARK    6  A    between atoms: C_11  and  O_12 
REMARK    7  A    between atoms: O_12  and  C_13 
REMARK    8  A    between atoms: C_20  and  O_21 
REMARK    9  A    between atoms: C_24  and  O_25 
ROOT
HETATM    1  C   UNK N   1      26.233  39.360  55.170  0.00  0.00     0.146 C 
HETATM    2  C   UNK N   1      26.759  40.502  56.067  0.00  0.00     0.076 C 
HETATM    3  C   UNK N   1      26.776  41.707  55.088  0.00  0.00     0.107 C 
HETATM    4  C   UNK N   1      27.994  41.660  54.069  0.00  0.00     0.175 C 
HETATM    5  C   UNK N   1      29.439  41.619  54.700  0.00  0.00     0.036 C 
HETATM    6  C   UNK N   1      29.558  42.492  55.946  0.00  0.00    -0.023 C 
HETATM    7  C   UNK N   1      29.805  41.998  57.188  0.00  0.00    -0.019 C 
HETATM    8  C   UNK N   1      29.935  42.835  58.466  0.00  0.00    -0.004 C 
HETATM    9  C   UNK N   1      28.689  42.668  59.428  0.00  0.00     0.132 C 
HETATM   10  C   UNK N   1      28.363  41.259  60.008  0.00  0.00     0.069 C 
HETATM   11  C   UNK N   1      27.663  40.222  59.094  0.00  0.00     0.149 C 
HETATM   12  C   UNK N   1      26.268  40.672  58.602  0.00  0.00    -0.059 C 
HETATM   13  C   UNK N   1      25.880  40.765  57.290  0.00  0.00    -0.011 C 
HETATM   14  C   UNK N   1      25.234  40.986  59.662  0.00  0.00     0.046 C 
HETATM   15  C   UNK N   1      30.095  44.345  58.147  0.00  0.00     0.021 C 
HETATM   16  C   UNK N   1      31.241  42.392  59.167  0.00  0.00     0.021 C 
HETATM   17  C   UNK N   1      29.992  40.179  54.845  0.00  0.00     0.017 C 
HETATM   18  C   UNK N   1      25.431  41.514  54.332  0.00  0.00     0.049 C 
HETATM   19  C   UNK N   1      25.084  40.014  54.396  0.00  0.00     0.015 C 
HETATM   20  C   UNK N   1      24.816  39.373  53.035  0.00  0.00     0.012 C 
ENDROOT
BRANCH   1  21
HETATM   21  O   UNK N   1      25.778  38.240  55.841  0.00  0.00    -0.311 OA
BRANCH  21  22
HETATM   22  C   UNK N   1      26.483  37.501  56.736  0.00  0.00     0.293 C 
HETATM   23  O   UNK N   1      26.001  37.207  57.819  0.00  0.00    -0.259 OA
BRANCH  22  24
HETATM   24  C   UNK N   1      27.812  36.986  56.345  0.00  0.00     0.039 A 
HETATM   25  C   UNK N   1      27.926  36.050  55.301  0.00  0.00     0.017 A 
HETATM   26  C   UNK N   1      29.178  35.551  54.936  0.00  0.00     0.001 A 
HETATM   27  C   UNK N   1      30.323  35.963  55.622  0.00  0.00     0.000 A 
HETATM   28  C   UNK N   1      30.219  36.885  56.667  0.00  0.00     0.001 A 
HETATM   29  C   UNK N   1      28.971  37.405  57.023  0.00  0.00     0.017 A 
ENDBRANCH  22  24
ENDBRANCH  21  22
ENDBRANCH   1  21
BRANCH   3  30
HETATM   30  O   UNK N   1      26.782  42.902  55.816  0.00  0.00    -0.307 OA
BRANCH  30  31
HETATM   31  C   UNK N   1      25.828  43.880  55.804  0.00  0.00     0.255 C 
HETATM   32  O   UNK N   1      25.525  44.459  54.770  0.00  0.00    -0.266 OA
HETATM   33  C   UNK N   1      25.095  44.206  57.064  0.00  0.00     0.126 C 
ENDBRANCH  30  31
ENDBRANCH   3  30
BRANCH   4  34
HETATM   34  O   UNK N   1      27.886  42.748  53.217  0.00  0.00    -0.313 OA
BRANCH  34  35
HETATM   35  C   UNK N   1      28.244  42.731  51.904  0.00  0.00     0.255 C 
HETATM   36  O   UNK N   1      28.952  43.612  51.433  0.00  0.00    -0.266 OA
HETATM   37  C   UNK N   1      27.797  41.602  51.036  0.00  0.00     0.126 C 
ENDBRANCH  34  35
ENDBRANCH   4  34
BRANCH  11  38
HETATM   38  O   UNK N   1      27.474  39.042  59.835  0.00  0.00    -0.391 OA
HETATM   39  H   UNK N   1      27.533  39.280  60.799  0.00  0.00     0.210 HD
ENDBRANCH  11  38
BRANCH   9  40
HETATM   40  O   UNK N   1      28.892  43.513  60.536  0.00  0.00    -0.394 OA
HETATM   41  H   UNK N   1      29.073  42.935  61.324  0.00  0.00     0.210 HD
ENDBRANCH   9  40
TORSDOF 9
ENDMDL
MODEL 9
REMARK VINA RESULT:      -4.7      2.204      5.233
REMARK  9 active torsions:
REMARK  status: ('A' for Active; 'I' for Inactive)
REMARK    1  A    between atoms: C_2  and  O_3 
REMARK    2  A    between atoms: C_2  and  C_36 
REMARK    3  A    between atoms: O_3  and  C_4 
REMARK    4  A    between atoms: C_6  and  O_7 
REMARK    5  A    between atoms: O_7  and  C_8 
REMARK    6  A    between atoms: C_11  and  O_12 
REMARK    7  A    between atoms: O_12  and  C_13 
REMARK    8  A    between atoms: C_20  and  O_21 
REMARK    9  A    between atoms: C_24  and  O_25 
ROOT
HETATM    1  C   UNK N   1      30.065  42.285  56.934  0.00  0.00     0.146 C 
HETATM    2  C   UNK N   1      28.866  41.813  57.783  0.00  0.00     0.076 C 
HETATM    3  C   UNK N   1      27.766  41.598  56.709  0.00  0.00     0.107 C 
HETATM    4  C   UNK N   1      27.134  42.960  56.190  0.00  0.00     0.175 C 
HETATM    5  C   UNK N   1      26.472  43.890  57.279  0.00  0.00     0.036 C 
HETATM    6  C   UNK N   1      25.729  43.097  58.351  0.00  0.00    -0.023 C 
HETATM    7  C   UNK N   1      26.098  43.076  59.658  0.00  0.00    -0.019 C 
HETATM    8  C   UNK N   1      25.382  42.298  60.769  0.00  0.00    -0.004 C 
HETATM    9  C   UNK N   1      26.210  41.040  61.257  0.00  0.00     0.132 C 
HETATM   10  C   UNK N   1      27.619  41.257  61.884  0.00  0.00     0.069 C 
HETATM   11  C   UNK N   1      28.816  41.548  60.943  0.00  0.00     0.149 C 
HETATM   12  C   UNK N   1      29.108  40.407  59.942  0.00  0.00    -0.059 C 
HETATM   13  C   UNK N   1      29.152  40.538  58.578  0.00  0.00    -0.011 C 
HETATM   14  C   UNK N   1      29.420  39.044  60.525  0.00  0.00     0.046 C 
HETATM   15  C   UNK N   1      23.984  41.804  60.313  0.00  0.00     0.021 C 
HETATM   16  C   UNK N   1      25.141  43.289  61.933  0.00  0.00     0.021 C 
HETATM   17  C   UNK N   1      27.439  44.977  57.809  0.00  0.00     0.017 C 
HETATM   18  C   UNK N   1      28.571  40.907  55.572  0.00  0.00     0.049 C 
HETATM   19  C   UNK N   1      30.041  41.343  55.726  0.00  0.00     0.015 C 
HETATM   20  C   UNK N   1      30.653  41.946  54.462  0.00  0.00     0.012 C 
ENDROOT
BRANCH   1  21
HETATM   21  O   UNK N   1      31.297  42.226  57.560  0.00  0.00    -0.311 OA
BRANCH  21  22
HETATM   22  C   UNK N   1      32.049  43.287  57.949  0.00  0.00     0.293 C 
HETATM   23  O   UNK N   1      33.268  43.243  57.889  0.00  0.00    -0.259 OA
BRANCH  22  24
HETATM   24  C   UNK N   1      31.366  44.530  58.366  0.00  0.00     0.039 A 
HETATM   25  C   UNK N   1      31.264  45.612  57.474  0.00  0.00     0.017 A 
HETATM   26  C   UNK N   1      30.631  46.793  57.869  0.00  0.00     0.001 A 
HETATM   27  C   UNK N   1      30.113  46.912  59.161  0.00  0.00     0.000 A 
HETATM   28  C   UNK N   1      30.218  45.846  60.057  0.00  0.00     0.001 A 
HETATM   29  C   UNK N   1      30.832  44.653  59.662  0.00  0.00     0.017 A 
ENDBRANCH  22  24
ENDBRANCH  21  22
ENDBRANCH   1  21
BRANCH   3  30
HETATM   30  O   UNK N   1      26.775  40.750  57.216  0.00  0.00    -0.307 OA
BRANCH  30  31
HETATM   31  C   UNK N   1      26.305  39.600  56.648  0.00  0.00     0.255 C 
HETATM   32  O   UNK N   1      25.525  39.629  55.706  0.00  0.00    -0.266 OA
HETATM   33  C   UNK N   1      26.800  38.281  57.145  0.00  0.00     0.126 C 
ENDBRANCH  30  31
ENDBRANCH   3  30
BRANCH   4  34
HETATM   34  O   UNK N   1      26.205  42.656  55.205  0.00  0.00    -0.313 OA
BRANCH  34  35
HETATM   35  C   UNK N   1      26.081  43.338  54.033  0.00  0.00     0.255 C 
HETATM   36  O   UNK N   1      25.162  44.127  53.858  0.00  0.00    -0.266 OA
HETATM   37  C   UNK N   1      27.101  43.144  52.962  0.00  0.00     0.126 C 
ENDBRANCH  34  35
ENDBRANCH   4  34
BRANCH  11  38
HETATM   38  O   UNK N   1      29.968  41.702  61.735  0.00  0.00    -0.391 OA
HETATM   39  H   UNK N   1      30.626  41.014  61.448  0.00  0.00     0.210 HD
ENDBRANCH  11  38
BRANCH   9  40
HETATM   40  O   UNK N   1      25.441  40.379  62.235  0.00  0.00    -0.394 OA
HETATM   41  H   UNK N   1      24.648  40.946  62.425  0.00  0.00     0.210 HD
ENDBRANCH   9  40
TORSDOF 9
ENDMDL
