MODEL 1
REMARK VINA RESULT:      -5.3      0.000      0.000
REMARK  9 active torsions:
REMARK  status: ('A' for Active; 'I' for Inactive)
REMARK    1  A    between atoms: C_2  and  O_3 
REMARK    2  A    between atoms: C_2  and  C_36 
REMARK    3  A    between atoms: O_3  and  C_4 
REMARK    4  A    between atoms: C_7  and  O_8 
REMARK    5  A    between atoms: O_8  and  C_9 
REMARK    6  A    between atoms: C_18  and  O_19 
REMARK    7  A    between atoms: O_19  and  C_20 
REMARK    8  A    between atoms: C_24  and  C_25 
REMARK    9  A    between atoms: C_25  and  O_27 
ROOT
HETATM    1  C   UNK N   1      29.091  38.129  56.803  0.00  0.00     0.148 C 
HETATM    2  C   UNK N   1      28.931  39.680  56.859  0.00  0.00     0.070 C 
HETATM    3  C   UNK N   1      29.410  40.078  55.476  0.00  0.00    -0.039 C 
HETATM    4  C   UNK N   1      29.374  41.308  54.896  0.00  0.00     0.067 C 
HETATM    5  C   UNK N   1      28.899  42.593  55.557  0.00  0.00     0.061 C 
HETATM    6  C   UNK N   1      29.881  43.098  56.603  0.00  0.00    -0.019 C 
HETATM    7  C   UNK N   1      29.499  43.708  57.743  0.00  0.00    -0.019 C 
HETATM    8  C   UNK N   1      30.473  44.430  58.673  0.00  0.00    -0.003 C 
HETATM    9  C   UNK N   1      31.338  45.409  57.831  0.00  0.00     0.021 C 
HETATM   10  C   UNK N   1      29.632  45.314  59.630  0.00  0.00     0.021 C 
HETATM   11  C   UNK N   1      31.437  43.514  59.509  0.00  0.00     0.144 C 
HETATM   12  C   UNK N   1      30.813  42.551  60.573  0.00  0.00     0.052 C 
HETATM   13  C   UNK N   1      30.551  41.084  60.149  0.00  0.00     0.116 C 
HETATM   14  C   UNK N   1      29.450  40.824  59.122  0.00  0.00    -0.073 C 
HETATM   15  C   UNK N   1      29.821  40.211  57.963  0.00  0.00    -0.012 C 
HETATM   16  C   UNK N   1      28.009  41.134  59.482  0.00  0.00     0.044 C 
HETATM   17  C   UNK N   1      27.406  42.589  55.934  0.00  0.00     0.021 C 
HETATM   18  C   UNK N   1      29.847  38.871  54.690  0.00  0.00     0.044 C 
HETATM   19  C   UNK N   1      28.987  37.781  55.312  0.00  0.00     0.016 C 
HETATM   20  C   UNK N   1      27.540  37.838  54.774  0.00  0.00     0.013 C 
ENDROOT
BRANCH   1  21
HETATM   21  O   UNK N   1      28.146  37.434  57.538  0.00  0.00    -0.311 OA
BRANCH  21  22
HETATM   22  C   UNK N   1      28.236  37.110  58.853  0.00  0.00     0.293 C 
HETATM   23  O   UNK N   1      29.147  36.408  59.259  0.00  0.00    -0.259 OA
BRANCH  22  24
HETATM   24  C   UNK N   1      27.219  37.631  59.796  0.00  0.00     0.039 A 
HETATM   25  C   UNK N   1      25.993  38.120  59.311  0.00  0.00     0.017 A 
HETATM   26  C   UNK N   1      25.033  38.621  60.195  0.00  0.00     0.001 A 
HETATM   27  C   UNK N   1      25.292  38.646  61.567  0.00  0.00     0.000 A 
HETATM   28  C   UNK N   1      26.508  38.166  62.060  0.00  0.00     0.001 A 
HETATM   29  C   UNK N   1      27.470  37.656  61.180  0.00  0.00     0.017 A 
ENDBRANCH  22  24
ENDBRANCH  21  22
ENDBRANCH   1  21
BRANCH   4  30
HETATM   30  O   UNK N   1      29.790  41.416  53.606  0.00  0.00    -0.283 OA
BRANCH  30  31
HETATM   31  C   UNK N   1      28.980  41.854  52.606  0.00  0.00     0.259 C 
HETATM   32  O   UNK N   1      29.310  42.799  51.901  0.00  0.00    -0.265 OA
HETATM   33  C   UNK N   1      27.664  41.185  52.382  0.00  0.00     0.126 C 
ENDBRANCH  30  31
ENDBRANCH   4  30
BRANCH  13  34
HETATM   34  C   UNK N   1      30.305  40.219  61.367  0.00  0.00     0.266 C 
HETATM   35  O   UNK N   1      29.901  40.714  62.411  0.00  0.00    -0.265 OA
BRANCH  34  36
HETATM   36  O   UNK N   1      30.516  38.880  61.274  0.00  0.00    -0.326 OA
HETATM   37  C   UNK N   1      31.633  38.324  60.687  0.00  0.00     0.213 C 
ENDBRANCH  34  36
ENDBRANCH  13  34
BRANCH  11  38
HETATM   38  O   UNK N   1      32.332  42.846  58.684  0.00  0.00    -0.315 OA
BRANCH  38  39
HETATM   39  C   UNK N   1      33.648  42.650  58.974  0.00  0.00     0.255 C 
HETATM   40  O   UNK N   1      34.484  43.500  58.704  0.00  0.00    -0.266 OA
HETATM   41  C   UNK N   1      34.071  41.380  59.637  0.00  0.00     0.126 C 
ENDBRANCH  38  39
ENDBRANCH  11  38
TORSDOF 9
ENDMDL
MODEL 2
REMARK VINA RESULT:      -4.8      3.984      7.708
REMARK  9 active torsions:
REMARK  status: ('A' for Active; 'I' for Inactive)
REMARK    1  A    between atoms: C_2  and  O_3 
REMARK    2  A    between atoms: C_2  and  C_36 
REMARK    3  A    between atoms: O_3  and  C_4 
REMARK    4  A    between atoms: C_7  and  O_8 
REMARK    5  A    between atoms: O_8  and  C_9 
REMARK    6  A    between atoms: C_18  and  O_19 
REMARK    7  A    between atoms: O_19  and  C_20 
REMARK    8  A    between atoms: C_24  and  C_25 
REMARK    9  A    between atoms: C_25  and  O_27 
ROOT
HETATM    1  C   UNK N   1      32.712  43.716  60.965  0.00  0.00     0.148 C 
HETATM    2  C   UNK N   1      31.242  43.915  60.482  0.00  0.00     0.070 C 
HETATM    3  C   UNK N   1      31.348  43.496  59.028  0.00  0.00    -0.039 C 
HETATM    4  C   UNK N   1      30.343  43.337  58.125  0.00  0.00     0.067 C 
HETATM    5  C   UNK N   1      28.870  43.620  58.369  0.00  0.00     0.061 C 
HETATM    6  C   UNK N   1      28.577  45.111  58.453  0.00  0.00    -0.019 C 
HETATM    7  C   UNK N   1      27.650  45.638  59.276  0.00  0.00    -0.019 C 
HETATM    8  C   UNK N   1      27.183  47.091  59.192  0.00  0.00    -0.003 C 
HETATM    9  C   UNK N   1      26.803  47.410  57.719  0.00  0.00     0.021 C 
HETATM   10  C   UNK N   1      25.870  47.205  60.008  0.00  0.00     0.021 C 
HETATM   11  C   UNK N   1      28.207  48.176  59.684  0.00  0.00     0.144 C 
HETATM   12  C   UNK N   1      28.620  48.180  61.193  0.00  0.00     0.052 C 
HETATM   13  C   UNK N   1      29.928  47.448  61.583  0.00  0.00     0.116 C 
HETATM   14  C   UNK N   1      29.949  45.923  61.480  0.00  0.00    -0.073 C 
HETATM   15  C   UNK N   1      30.879  45.375  60.649  0.00  0.00    -0.012 C 
HETATM   16  C   UNK N   1      29.045  45.104  62.381  0.00  0.00     0.044 C 
HETATM   17  C   UNK N   1      28.225  42.714  59.434  0.00  0.00     0.021 C 
HETATM   18  C   UNK N   1      32.762  43.121  58.679  0.00  0.00     0.044 C 
HETATM   19  C   UNK N   1      33.289  42.649  60.026  0.00  0.00     0.016 C 
HETATM   20  C   UNK N   1      32.793  41.222  60.349  0.00  0.00     0.013 C 
ENDROOT
BRANCH   1  21
HETATM   21  O   UNK N   1      32.827  43.322  62.287  0.00  0.00    -0.311 OA
BRANCH  21  22
HETATM   22  C   UNK N   1      33.456  44.009  63.275  0.00  0.00     0.293 C 
HETATM   23  O   UNK N   1      33.100  43.893  64.436  0.00  0.00    -0.259 OA
BRANCH  22  24
HETATM   24  C   UNK N   1      34.591  44.895  62.927  0.00  0.00     0.039 A 
HETATM   25  C   UNK N   1      34.578  46.245  63.321  0.00  0.00     0.017 A 
HETATM   26  C   UNK N   1      35.643  47.088  62.988  0.00  0.00     0.001 A 
HETATM   27  C   UNK N   1      36.722  46.594  62.253  0.00  0.00     0.000 A 
HETATM   28  C   UNK N   1      36.743  45.255  61.853  0.00  0.00     0.001 A 
HETATM   29  C   UNK N   1      35.684  44.405  62.189  0.00  0.00     0.017 A 
ENDBRANCH  22  24
ENDBRANCH  21  22
ENDBRANCH   1  21
BRANCH   4  30
HETATM   30  O   UNK N   1      30.668  42.875  56.888  0.00  0.00    -0.283 OA
BRANCH  30  31
HETATM   31  C   UNK N   1      29.976  41.884  56.267  0.00  0.00     0.259 C 
HETATM   32  O   UNK N   1      29.858  40.782  56.787  0.00  0.00    -0.265 OA
HETATM   33  C   UNK N   1      29.372  42.140  54.926  0.00  0.00     0.126 C 
ENDBRANCH  30  31
ENDBRANCH   4  30
BRANCH  13  34
HETATM   34  C   UNK N   1      30.365  47.855  62.974  0.00  0.00     0.266 C 
HETATM   35  O   UNK N   1      29.858  48.821  63.529  0.00  0.00    -0.265 OA
BRANCH  34  36
HETATM   36  O   UNK N   1      31.312  47.113  63.608  0.00  0.00    -0.326 OA
HETATM   37  C   UNK N   1      31.261  46.800  64.949  0.00  0.00     0.213 C 
ENDBRANCH  34  36
ENDBRANCH  13  34
BRANCH  11  38
HETATM   38  O   UNK N   1      29.320  48.224  58.854  0.00  0.00    -0.315 OA
BRANCH  38  39
HETATM   39  C   UNK N   1      29.719  49.329  58.166  0.00  0.00     0.255 C 
HETATM   40  O   UNK N   1      29.571  50.449  58.635  0.00  0.00    -0.266 OA
HETATM   41  C   UNK N   1      30.352  49.167  56.823  0.00  0.00     0.126 C 
ENDBRANCH  38  39
ENDBRANCH  11  38
TORSDOF 9
ENDMDL
MODEL 3
REMARK VINA RESULT:      -4.6     19.219     23.225
REMARK  9 active torsions:
REMARK  status: ('A' for Active; 'I' for Inactive)
REMARK    1  A    between atoms: C_2  and  O_3 
REMARK    2  A    between atoms: C_2  and  C_36 
REMARK    3  A    between atoms: O_3  and  C_4 
REMARK    4  A    between atoms: C_7  and  O_8 
REMARK    5  A    between atoms: O_8  and  C_9 
REMARK    6  A    between atoms: C_18  and  O_19 
REMARK    7  A    between atoms: O_19  and  C_20 
REMARK    8  A    between atoms: C_24  and  C_25 
REMARK    9  A    between atoms: C_25  and  O_27 
ROOT
HETATM    1  C   UNK N   1      28.514  56.529  41.939  0.00  0.00     0.148 C 
HETATM    2  C   UNK N   1      27.850  56.028  40.619  0.00  0.00     0.070 C 
HETATM    3  C   UNK N   1      26.461  56.625  40.740  0.00  0.00    -0.039 C 
HETATM    4  C   UNK N   1      25.466  56.633  39.811  0.00  0.00     0.067 C 
HETATM    5  C   UNK N   1      25.514  55.965  38.447  0.00  0.00     0.061 C 
HETATM    6  C   UNK N   1      25.430  54.449  38.545  0.00  0.00    -0.019 C 
HETATM    7  C   UNK N   1      26.091  53.615  37.718  0.00  0.00    -0.019 C 
HETATM    8  C   UNK N   1      25.824  52.112  37.654  0.00  0.00    -0.003 C 
HETATM    9  C   UNK N   1      24.294  51.881  37.501  0.00  0.00     0.021 C 
HETATM   10  C   UNK N   1      26.471  51.580  36.350  0.00  0.00     0.021 C 
HETATM   11  C   UNK N   1      26.330  51.267  38.879  0.00  0.00     0.144 C 
HETATM   12  C   UNK N   1      27.870  51.190  39.144  0.00  0.00     0.052 C 
HETATM   13  C   UNK N   1      28.472  52.176  40.177  0.00  0.00     0.116 C 
HETATM   14  C   UNK N   1      28.508  53.659  39.811  0.00  0.00    -0.073 C 
HETATM   15  C   UNK N   1      27.842  54.514  40.635  0.00  0.00    -0.012 C 
HETATM   16  C   UNK N   1      29.371  54.116  38.648  0.00  0.00     0.044 C 
HETATM   17  C   UNK N   1      26.575  56.551  37.498  0.00  0.00     0.021 C 
HETATM   18  C   UNK N   1      26.311  57.380  42.033  0.00  0.00     0.044 C 
HETATM   19  C   UNK N   1      27.746  57.808  42.298  0.00  0.00     0.016 C 
HETATM   20  C   UNK N   1      28.137  59.019  41.422  0.00  0.00     0.013 C 
ENDROOT
BRANCH   1  21
HETATM   21  O   UNK N   1      29.870  56.784  41.831  0.00  0.00    -0.311 OA
BRANCH  21  22
HETATM   22  C   UNK N   1      30.856  55.852  41.764  0.00  0.00     0.293 C 
HETATM   23  O   UNK N   1      31.330  55.525  40.689  0.00  0.00    -0.259 OA
BRANCH  22  24
HETATM   24  C   UNK N   1      31.359  55.244  43.018  0.00  0.00     0.039 A 
HETATM   25  C   UNK N   1      32.726  55.324  43.342  0.00  0.00     0.017 A 
HETATM   26  C   UNK N   1      33.208  54.745  44.519  0.00  0.00     0.001 A 
HETATM   27  C   UNK N   1      32.334  54.073  45.376  0.00  0.00     0.000 A 
HETATM   28  C   UNK N   1      30.975  53.985  45.063  0.00  0.00     0.001 A 
HETATM   29  C   UNK N   1      30.485  54.569  43.890  0.00  0.00     0.017 A 
ENDBRANCH  22  24
ENDBRANCH  21  22
ENDBRANCH   1  21
BRANCH   4  30
HETATM   30  O   UNK N   1      24.322  57.301  40.112  0.00  0.00    -0.283 OA
BRANCH  30  31
HETATM   31  C   UNK N   1      24.083  58.575  39.700  0.00  0.00     0.259 C 
HETATM   32  O   UNK N   1      23.974  58.838  38.510  0.00  0.00    -0.265 OA
HETATM   33  C   UNK N   1      23.975  59.665  40.714  0.00  0.00     0.126 C 
ENDBRANCH  30  31
ENDBRANCH   4  30
BRANCH  13  34
HETATM   34  C   UNK N   1      29.862  51.732  40.581  0.00  0.00     0.266 C 
HETATM   35  O   UNK N   1      30.743  52.555  40.788  0.00  0.00    -0.265 OA
BRANCH  34  36
HETATM   36  O   UNK N   1      30.107  50.404  40.737  0.00  0.00    -0.326 OA
HETATM   37  C   UNK N   1      31.373  49.873  40.861  0.00  0.00     0.213 C 
ENDBRANCH  34  36
ENDBRANCH  13  34
BRANCH  11  38
HETATM   38  O   UNK N   1      25.632  51.594  40.034  0.00  0.00    -0.315 OA
BRANCH  38  39
HETATM   39  C   UNK N   1      25.229  50.693  40.971  0.00  0.00     0.255 C 
HETATM   40  O   UNK N   1      25.728  50.681  42.087  0.00  0.00    -0.266 OA
HETATM   41  C   UNK N   1      24.157  49.711  40.629  0.00  0.00     0.126 C 
ENDBRANCH  38  39
ENDBRANCH  11  38
TORSDOF 9
ENDMDL
MODEL 4
REMARK VINA RESULT:      -4.3      2.123      6.353
REMARK  9 active torsions:
REMARK  status: ('A' for Active; 'I' for Inactive)
REMARK    1  A    between atoms: C_2  and  O_3 
REMARK    2  A    between atoms: C_2  and  C_36 
REMARK    3  A    between atoms: O_3  and  C_4 
REMARK    4  A    between atoms: C_7  and  O_8 
REMARK    5  A    between atoms: O_8  and  C_9 
REMARK    6  A    between atoms: C_18  and  O_19 
REMARK    7  A    between atoms: O_19  and  C_20 
REMARK    8  A    between atoms: C_24  and  C_25 
REMARK    9  A    between atoms: C_25  and  O_27 
ROOT
HETATM    1  C   UNK N   1      30.183  42.403  57.106  0.00  0.00     0.148 C 
HETATM    2  C   UNK N   1      29.885  40.992  57.700  0.00  0.00     0.070 C 
HETATM    3  C   UNK N   1      28.715  40.549  56.842  0.00  0.00    -0.039 C 
HETATM    4  C   UNK N   1      28.106  39.333  56.814  0.00  0.00     0.067 C 
HETATM    5  C   UNK N   1      28.435  38.150  57.710  0.00  0.00     0.061 C 
HETATM    6  C   UNK N   1      27.967  38.366  59.142  0.00  0.00    -0.019 C 
HETATM    7  C   UNK N   1      28.644  37.917  60.218  0.00  0.00    -0.019 C 
HETATM    8  C   UNK N   1      28.064  37.916  61.631  0.00  0.00    -0.003 C 
HETATM    9  C   UNK N   1      26.658  37.253  61.596  0.00  0.00     0.021 C 
HETATM   10  C   UNK N   1      28.954  36.988  62.497  0.00  0.00     0.021 C 
HETATM   11  C   UNK N   1      27.931  39.319  62.325  0.00  0.00     0.144 C 
HETATM   12  C   UNK N   1      29.237  40.121  62.640  0.00  0.00     0.052 C 
HETATM   13  C   UNK N   1      29.686  41.195  61.617  0.00  0.00     0.116 C 
HETATM   14  C   UNK N   1      30.189  40.716  60.256  0.00  0.00    -0.073 C 
HETATM   15  C   UNK N   1      29.514  41.158  59.159  0.00  0.00    -0.012 C 
HETATM   16  C   UNK N   1      31.464  39.896  60.181  0.00  0.00     0.044 C 
HETATM   17  C   UNK N   1      29.853  37.585  57.510  0.00  0.00     0.021 C 
HETATM   18  C   UNK N   1      28.336  41.621  55.856  0.00  0.00     0.044 C 
HETATM   19  C   UNK N   1      29.666  42.334  55.663  0.00  0.00     0.016 C 
HETATM   20  C   UNK N   1      30.594  41.535  54.721  0.00  0.00     0.013 C 
ENDROOT
BRANCH   1  21
HETATM   21  O   UNK N   1      31.520  42.759  57.132  0.00  0.00    -0.311 OA
BRANCH  21  22
HETATM   22  C   UNK N   1      32.071  43.741  57.891  0.00  0.00     0.293 C 
HETATM   23  O   UNK N   1      33.231  43.662  58.262  0.00  0.00    -0.259 OA
BRANCH  22  24
HETATM   24  C   UNK N   1      31.250  44.919  58.254  0.00  0.00     0.039 A 
HETATM   25  C   UNK N   1      31.112  45.988  57.351  0.00  0.00     0.017 A 
HETATM   26  C   UNK N   1      30.345  47.106  57.692  0.00  0.00     0.001 A 
HETATM   27  C   UNK N   1      29.719  47.171  58.938  0.00  0.00     0.000 A 
HETATM   28  C   UNK N   1      29.852  46.116  59.845  0.00  0.00     0.001 A 
HETATM   29  C   UNK N   1      30.612  44.991  59.506  0.00  0.00     0.017 A 
ENDBRANCH  22  24
ENDBRANCH  21  22
ENDBRANCH   1  21
BRANCH   4  30
HETATM   30  O   UNK N   1      27.119  39.137  55.901  0.00  0.00    -0.283 OA
BRANCH  30  31
HETATM   31  C   UNK N   1      27.242  38.277  54.855  0.00  0.00     0.259 C 
HETATM   32  O   UNK N   1      26.979  37.089  54.986  0.00  0.00    -0.265 OA
HETATM   33  C   UNK N   1      27.727  38.790  53.539  0.00  0.00     0.126 C 
ENDBRANCH  30  31
ENDBRANCH   4  30
BRANCH  13  34
HETATM   34  C   UNK N   1      30.723  42.109  62.234  0.00  0.00     0.266 C 
HETATM   35  O   UNK N   1      30.832  42.197  63.450  0.00  0.00    -0.265 OA
BRANCH  34  36
HETATM   36  O   UNK N   1      31.548  42.812  61.414  0.00  0.00    -0.326 OA
HETATM   37  C   UNK N   1      32.870  43.072  61.706  0.00  0.00     0.213 C 
ENDBRANCH  34  36
ENDBRANCH  13  34
BRANCH  11  38
HETATM   38  O   UNK N   1      26.994  40.112  61.674  0.00  0.00    -0.315 OA
BRANCH  38  39
HETATM   39  C   UNK N   1      26.084  40.904  62.305  0.00  0.00     0.255 C 
HETATM   40  O   UNK N   1      26.228  42.118  62.343  0.00  0.00    -0.266 OA
HETATM   41  C   UNK N   1      24.892  40.278  62.952  0.00  0.00     0.126 C 
ENDBRANCH  38  39
ENDBRANCH  11  38
TORSDOF 9
ENDMDL
MODEL 5
REMARK VINA RESULT:      -4.3     18.945     23.196
REMARK  9 active torsions:
REMARK  status: ('A' for Active; 'I' for Inactive)
REMARK    1  A    between atoms: C_2  and  O_3 
REMARK    2  A    between atoms: C_2  and  C_36 
REMARK    3  A    between atoms: O_3  and  C_4 
REMARK    4  A    between atoms: C_7  and  O_8 
REMARK    5  A    between atoms: O_8  and  C_9 
REMARK    6  A    between atoms: C_18  and  O_19 
REMARK    7  A    between atoms: O_19  and  C_20 
REMARK    8  A    between atoms: C_24  and  C_25 
REMARK    9  A    between atoms: C_25  and  O_27 
ROOT
HETATM    1  C   UNK N   1      47.060  55.651  59.576  0.00  0.00     0.148 C 
HETATM    2  C   UNK N   1      48.260  54.659  59.678  0.00  0.00     0.070 C 
HETATM    3  C   UNK N   1      48.541  54.381  58.214  0.00  0.00    -0.039 C 
HETATM    4  C   UNK N   1      49.574  53.679  57.675  0.00  0.00     0.067 C 
HETATM    5  C   UNK N   1      50.656  52.945  58.453  0.00  0.00     0.061 C 
HETATM    6  C   UNK N   1      50.128  51.683  59.121  0.00  0.00    -0.019 C 
HETATM    7  C   UNK N   1      50.557  51.247  60.321  0.00  0.00    -0.019 C 
HETATM    8  C   UNK N   1      50.215  49.868  60.883  0.00  0.00    -0.003 C 
HETATM    9  C   UNK N   1      50.532  48.795  59.802  0.00  0.00     0.021 C 
HETATM   10  C   UNK N   1      51.186  49.591  62.059  0.00  0.00     0.021 C 
HETATM   11  C   UNK N   1      48.732  49.664  61.361  0.00  0.00     0.144 C 
HETATM   12  C   UNK N   1      48.217  50.511  62.571  0.00  0.00     0.052 C 
HETATM   13  C   UNK N   1      47.440  51.814  62.258  0.00  0.00     0.116 C 
HETATM   14  C   UNK N   1      48.218  52.979  61.647  0.00  0.00    -0.073 C 
HETATM   15  C   UNK N   1      47.798  53.429  60.432  0.00  0.00    -0.012 C 
HETATM   16  C   UNK N   1      49.313  53.648  62.456  0.00  0.00     0.044 C 
HETATM   17  C   UNK N   1      51.556  53.865  59.296  0.00  0.00     0.021 C 
HETATM   18  C   UNK N   1      47.569  55.115  57.331  0.00  0.00     0.044 C 
HETATM   19  C   UNK N   1      47.220  56.313  58.202  0.00  0.00     0.016 C 
HETATM   20  C   UNK N   1      48.342  57.375  58.164  0.00  0.00     0.013 C 
ENDROOT
BRANCH   1  21
HETATM   21  O   UNK N   1      47.024  56.603  60.580  0.00  0.00    -0.311 OA
BRANCH  21  22
HETATM   22  C   UNK N   1      46.231  56.573  61.682  0.00  0.00     0.293 C 
HETATM   23  O   UNK N   1      46.698  56.302  62.776  0.00  0.00    -0.259 OA
BRANCH  22  24
HETATM   24  C   UNK N   1      44.790  56.888  61.543  0.00  0.00     0.039 A 
HETATM   25  C   UNK N   1      43.877  56.459  62.522  0.00  0.00     0.017 A 
HETATM   26  C   UNK N   1      42.515  56.746  62.392  0.00  0.00     0.001 A 
HETATM   27  C   UNK N   1      42.053  57.452  61.280  0.00  0.00     0.000 A 
HETATM   28  C   UNK N   1      42.951  57.880  60.299  0.00  0.00     0.001 A 
HETATM   29  C   UNK N   1      44.316  57.603  60.427  0.00  0.00     0.017 A 
ENDBRANCH  22  24
ENDBRANCH  21  22
ENDBRANCH   1  21
BRANCH   4  30
HETATM   30  O   UNK N   1      49.669  53.624  56.321  0.00  0.00    -0.283 OA
BRANCH  30  31
HETATM   31  C   UNK N   1      50.740  54.108  55.637  0.00  0.00     0.259 C 
HETATM   32  O   UNK N   1      51.417  53.372  54.932  0.00  0.00    -0.265 OA
HETATM   33  C   UNK N   1      51.103  55.550  55.769  0.00  0.00     0.126 C 
ENDBRANCH  30  31
ENDBRANCH   4  30
BRANCH  13  34
HETATM   34  C   UNK N   1      46.710  52.301  63.492  0.00  0.00     0.266 C 
HETATM   35  O   UNK N   1      47.093  51.982  64.609  0.00  0.00    -0.265 OA
BRANCH  34  36
HETATM   36  O   UNK N   1      45.636  53.120  63.337  0.00  0.00    -0.326 OA
HETATM   37  C   UNK N   1      44.594  52.855  62.475  0.00  0.00     0.213 C 
ENDBRANCH  34  36
ENDBRANCH  13  34
BRANCH  11  38
HETATM   38  O   UNK N   1      47.850  49.722  60.290  0.00  0.00    -0.315 OA
BRANCH  38  39
HETATM   39  C   UNK N   1      46.821  48.852  60.092  0.00  0.00     0.255 C 
HETATM   40  O   UNK N   1      47.003  47.781  59.531  0.00  0.00    -0.266 OA
HETATM   41  C   UNK N   1      45.454  49.212  60.575  0.00  0.00     0.126 C 
ENDBRANCH  38  39
ENDBRANCH  11  38
TORSDOF 9
ENDMDL
MODEL 6
REMARK VINA RESULT:      -4.3     18.661     22.124
REMARK  9 active torsions:
REMARK  status: ('A' for Active; 'I' for Inactive)
REMARK    1  A    between atoms: C_2  and  O_3 
REMARK    2  A    between atoms: C_2  and  C_36 
REMARK    3  A    between atoms: O_3  and  C_4 
REMARK    4  A    between atoms: C_7  and  O_8 
REMARK    5  A    between atoms: O_8  and  C_9 
REMARK    6  A    between atoms: C_18  and  O_19 
REMARK    7  A    between atoms: O_19  and  C_20 
REMARK    8  A    between atoms: C_24  and  C_25 
REMARK    9  A    between atoms: C_25  and  O_27 
ROOT
HETATM    1  C   UNK N   1      44.646  51.884  62.055  0.00  0.00     0.148 C 
HETATM    2  C   UNK N   1      44.673  53.336  62.625  0.00  0.00     0.070 C 
HETATM    3  C   UNK N   1      43.274  53.455  63.200  0.00  0.00    -0.039 C 
HETATM    4  C   UNK N   1      42.756  54.466  63.949  0.00  0.00     0.067 C 
HETATM    5  C   UNK N   1      43.469  55.757  64.318  0.00  0.00     0.061 C 
HETATM    6  C   UNK N   1      43.614  56.694  63.128  0.00  0.00    -0.019 C 
HETATM    7  C   UNK N   1      44.688  57.487  62.937  0.00  0.00    -0.019 C 
HETATM    8  C   UNK N   1      44.734  58.597  61.889  0.00  0.00    -0.003 C 
HETATM    9  C   UNK N   1      43.462  59.480  62.038  0.00  0.00     0.021 C 
HETATM   10  C   UNK N   1      45.935  59.513  62.234  0.00  0.00     0.021 C 
HETATM   11  C   UNK N   1      44.837  58.130  60.392  0.00  0.00     0.144 C 
HETATM   12  C   UNK N   1      46.125  57.366  59.938  0.00  0.00     0.052 C 
HETATM   13  C   UNK N   1      46.075  55.818  59.925  0.00  0.00     0.116 C 
HETATM   14  C   UNK N   1      46.001  55.096  61.269  0.00  0.00    -0.073 C 
HETATM   15  C   UNK N   1      44.920  54.293  61.478  0.00  0.00    -0.012 C 
HETATM   16  C   UNK N   1      47.167  55.199  62.235  0.00  0.00     0.044 C 
HETATM   17  C   UNK N   1      44.704  55.558  65.214  0.00  0.00     0.021 C 
HETATM   18  C   UNK N   1      42.484  52.198  62.956  0.00  0.00     0.044 C 
HETATM   19  C   UNK N   1      43.590  51.155  62.897  0.00  0.00     0.016 C 
HETATM   20  C   UNK N   1      44.087  50.789  64.313  0.00  0.00     0.013 C 
ENDROOT
BRANCH   1  21
HETATM   21  O   UNK N   1      45.863  51.227  62.117  0.00  0.00    -0.311 OA
BRANCH  21  22
HETATM   22  C   UNK N   1      46.415  50.471  61.133  0.00  0.00     0.293 C 
HETATM   23  O   UNK N   1      45.741  49.659  60.522  0.00  0.00    -0.259 OA
BRANCH  22  24
HETATM   24  C   UNK N   1      47.847  50.654  60.800  0.00  0.00     0.039 A 
HETATM   25  C   UNK N   1      48.451  51.915  60.952  0.00  0.00     0.017 A 
HETATM   26  C   UNK N   1      49.800  52.095  60.631  0.00  0.00     0.001 A 
HETATM   27  C   UNK N   1      50.552  51.023  60.147  0.00  0.00     0.000 A 
HETATM   28  C   UNK N   1      49.961  49.767  59.988  0.00  0.00     0.001 A 
HETATM   29  C   UNK N   1      48.614  49.578  60.315  0.00  0.00     0.017 A 
ENDBRANCH  22  24
ENDBRANCH  21  22
ENDBRANCH   1  21
BRANCH   4  30
HETATM   30  O   UNK N   1      41.491  54.321  64.425  0.00  0.00    -0.283 OA
BRANCH  30  31
HETATM   31  C   UNK N   1      40.434  55.018  63.930  0.00  0.00     0.259 C 
HETATM   32  O   UNK N   1      40.071  54.867  62.771  0.00  0.00    -0.265 OA
HETATM   33  C   UNK N   1      39.725  55.996  64.808  0.00  0.00     0.126 C 
ENDBRANCH  30  31
ENDBRANCH   4  30
BRANCH  13  34
HETATM   34  C   UNK N   1      47.235  55.260  59.128  0.00  0.00     0.266 C 
HETATM   35  O   UNK N   1      47.158  54.157  58.603  0.00  0.00    -0.265 OA
BRANCH  34  36
HETATM   36  O   UNK N   1      48.355  56.017  58.982  0.00  0.00    -0.326 OA
HETATM   37  C   UNK N   1      49.607  55.609  59.388  0.00  0.00     0.213 C 
ENDBRANCH  34  36
ENDBRANCH  13  34
BRANCH  11  38
HETATM   38  O   UNK N   1      43.685  57.463  59.996  0.00  0.00    -0.315 OA
BRANCH  38  39
HETATM   39  C   UNK N   1      42.890  57.848  58.960  0.00  0.00     0.255 C 
HETATM   40  O   UNK N   1      41.964  57.143  58.584  0.00  0.00    -0.266 OA
HETATM   41  C   UNK N   1      43.151  59.152  58.281  0.00  0.00     0.126 C 
ENDBRANCH  38  39
ENDBRANCH  11  38
TORSDOF 9
ENDMDL
MODEL 7
REMARK VINA RESULT:      -4.2     18.646     24.110
REMARK  9 active torsions:
REMARK  status: ('A' for Active; 'I' for Inactive)
REMARK    1  A    between atoms: C_2  and  O_3 
REMARK    2  A    between atoms: C_2  and  C_36 
REMARK    3  A    between atoms: O_3  and  C_4 
REMARK    4  A    between atoms: C_7  and  O_8 
REMARK    5  A    between atoms: O_8  and  C_9 
REMARK    6  A    between atoms: C_18  and  O_19 
REMARK    7  A    between atoms: O_19  and  C_20 
REMARK    8  A    between atoms: C_24  and  C_25 
REMARK    9  A    between atoms: C_25  and  O_27 
ROOT
HETATM    1  C   UNK N   1      50.867  52.272  57.179  0.00  0.00     0.148 C 
HETATM    2  C   UNK N   1      50.927  51.881  58.688  0.00  0.00     0.070 C 
HETATM    3  C   UNK N   1      51.401  50.443  58.604  0.00  0.00    -0.039 C 
HETATM    4  C   UNK N   1      51.763  49.616  59.622  0.00  0.00     0.067 C 
HETATM    5  C   UNK N   1      51.700  49.947  61.105  0.00  0.00     0.061 C 
HETATM    6  C   UNK N   1      50.271  49.985  61.626  0.00  0.00    -0.019 C 
HETATM    7  C   UNK N   1      49.852  50.846  62.575  0.00  0.00    -0.019 C 
HETATM    8  C   UNK N   1      48.497  50.731  63.271  0.00  0.00    -0.003 C 
HETATM    9  C   UNK N   1      48.320  49.273  63.784  0.00  0.00     0.021 C 
HETATM   10  C   UNK N   1      48.546  51.628  64.534  0.00  0.00     0.021 C 
HETATM   11  C   UNK N   1      47.241  51.104  62.405  0.00  0.00     0.144 C 
HETATM   12  C   UNK N   1      47.091  52.581  61.909  0.00  0.00     0.052 C 
HETATM   13  C   UNK N   1      47.588  52.914  60.480  0.00  0.00     0.116 C 
HETATM   14  C   UNK N   1      49.094  52.875  60.222  0.00  0.00    -0.073 C 
HETATM   15  C   UNK N   1      49.534  52.008  59.268  0.00  0.00    -0.012 C 
HETATM   16  C   UNK N   1      49.995  53.870  60.930  0.00  0.00     0.044 C 
HETATM   17  C   UNK N   1      52.638  51.091  61.533  0.00  0.00     0.021 C 
HETATM   18  C   UNK N   1      51.569  50.015  57.171  0.00  0.00     0.044 C 
HETATM   19  C   UNK N   1      51.880  51.343  56.497  0.00  0.00     0.016 C 
HETATM   20  C   UNK N   1      53.348  51.760  56.739  0.00  0.00     0.013 C 
ENDROOT
BRANCH   1  21
HETATM   21  O   UNK N   1      51.168  53.599  56.924  0.00  0.00    -0.311 OA
BRANCH  21  22
HETATM   22  C   UNK N   1      50.411  54.465  56.202  0.00  0.00     0.293 C 
HETATM   23  O   UNK N   1      50.288  54.327  54.997  0.00  0.00    -0.259 OA
BRANCH  22  24
HETATM   24  C   UNK N   1      49.725  55.577  56.900  0.00  0.00     0.039 A 
HETATM   25  C   UNK N   1      50.114  55.942  58.201  0.00  0.00     0.017 A 
HETATM   26  C   UNK N   1      49.463  56.984  58.867  0.00  0.00     0.001 A 
HETATM   27  C   UNK N   1      48.414  57.664  58.245  0.00  0.00     0.000 A 
HETATM   28  C   UNK N   1      48.016  57.308  56.954  0.00  0.00     0.001 A 
HETATM   29  C   UNK N   1      48.668  56.270  56.279  0.00  0.00     0.017 A 
ENDBRANCH  22  24
ENDBRANCH  21  22
ENDBRANCH   1  21
BRANCH   4  30
HETATM   30  O   UNK N   1      52.234  48.382  59.303  0.00  0.00    -0.283 OA
BRANCH  30  31
HETATM   31  C   UNK N   1      51.543  47.241  59.564  0.00  0.00     0.259 C 
HETATM   32  O   UNK N   1      50.372  47.126  59.228  0.00  0.00    -0.265 OA
HETATM   33  C   UNK N   1      52.220  46.125  60.290  0.00  0.00     0.126 C 
ENDBRANCH  30  31
ENDBRANCH   4  30
BRANCH  13  34
HETATM   34  C   UNK N   1      47.044  54.253  60.031  0.00  0.00     0.266 C 
HETATM   35  O   UNK N   1      46.909  54.503  58.840  0.00  0.00    -0.265 OA
BRANCH  34  36
HETATM   36  O   UNK N   1      46.683  55.164  60.973  0.00  0.00    -0.326 OA
HETATM   37  C   UNK N   1      45.829  56.217  60.726  0.00  0.00     0.213 C 
ENDBRANCH  34  36
ENDBRANCH  13  34
BRANCH  11  38
HETATM   38  O   UNK N   1      47.063  50.200  61.365  0.00  0.00    -0.315 OA
BRANCH  38  39
HETATM   39  C   UNK N   1      46.017  49.335  61.268  0.00  0.00     0.255 C 
HETATM   40  O   UNK N   1      46.203  48.127  61.216  0.00  0.00    -0.266 OA
HETATM   41  C   UNK N   1      44.624  49.871  61.231  0.00  0.00     0.126 C 
ENDBRANCH  38  39
ENDBRANCH  11  38
TORSDOF 9
ENDMDL
MODEL 8
REMARK VINA RESULT:      -3.8     18.708     23.192
REMARK  9 active torsions:
REMARK  status: ('A' for Active; 'I' for Inactive)
REMARK    1  A    between atoms: C_2  and  O_3 
REMARK    2  A    between atoms: C_2  and  C_36 
REMARK    3  A    between atoms: O_3  and  C_4 
REMARK    4  A    between atoms: C_7  and  O_8 
REMARK    5  A    between atoms: O_8  and  C_9 
REMARK    6  A    between atoms: C_18  and  O_19 
REMARK    7  A    between atoms: O_19  and  C_20 
REMARK    8  A    between atoms: C_24  and  C_25 
REMARK    9  A    between atoms: C_25  and  O_27 
ROOT
HETATM    1  C   UNK N   1      47.578  50.008  60.510  0.00  0.00     0.148 C 
HETATM    2  C   UNK N   1      47.430  51.332  61.323  0.00  0.00     0.070 C 
HETATM    3  C   UNK N   1      45.922  51.440  61.443  0.00  0.00    -0.039 C 
HETATM    4  C   UNK N   1      45.199  52.335  62.169  0.00  0.00     0.067 C 
HETATM    5  C   UNK N   1      45.765  53.491  62.980  0.00  0.00     0.061 C 
HETATM    6  C   UNK N   1      46.290  54.611  62.095  0.00  0.00    -0.019 C 
HETATM    7  C   UNK N   1      47.373  55.352  62.403  0.00  0.00    -0.019 C 
HETATM    8  C   UNK N   1      47.760  56.624  61.651  0.00  0.00    -0.003 C 
HETATM    9  C   UNK N   1      46.514  57.550  61.559  0.00  0.00     0.021 C 
HETATM   10  C   UNK N   1      48.794  57.382  62.522  0.00  0.00     0.021 C 
HETATM   11  C   UNK N   1      48.334  56.424  60.203  0.00  0.00     0.144 C 
HETATM   12  C   UNK N   1      49.694  55.667  60.038  0.00  0.00     0.052 C 
HETATM   13  C   UNK N   1      49.640  54.153  59.718  0.00  0.00     0.116 C 
HETATM   14  C   UNK N   1      49.134  53.211  60.810  0.00  0.00    -0.073 C 
HETATM   15  C   UNK N   1      48.038  52.458  60.514  0.00  0.00    -0.012 C 
HETATM   16  C   UNK N   1      49.931  53.064  62.093  0.00  0.00     0.044 C 
HETATM   17  C   UNK N   1      46.648  53.054  64.163  0.00  0.00     0.021 C 
HETATM   18  C   UNK N   1      45.243  50.302  60.731  0.00  0.00     0.044 C 
HETATM   19  C   UNK N   1      46.303  49.215  60.825  0.00  0.00     0.016 C 
HETATM   20  C   UNK N   1      46.318  48.572  62.230  0.00  0.00     0.013 C 
ENDROOT
BRANCH   1  21
HETATM   21  O   UNK N   1      48.706  49.271  60.824  0.00  0.00    -0.311 OA
BRANCH  21  22
HETATM   22  C   UNK N   1      49.595  48.753  59.938  0.00  0.00     0.293 C 
HETATM   23  O   UNK N   1      49.285  47.814  59.224  0.00  0.00    -0.259 OA
BRANCH  22  24
HETATM   24  C   UNK N   1      50.946  49.351  59.839  0.00  0.00     0.039 A 
HETATM   25  C   UNK N   1      51.766  49.063  58.733  0.00  0.00     0.017 A 
HETATM   26  C   UNK N   1      53.046  49.618  58.639  0.00  0.00     0.001 A 
HETATM   27  C   UNK N   1      53.521  50.455  59.650  0.00  0.00     0.000 A 
HETATM   28  C   UNK N   1      52.717  50.745  60.756  0.00  0.00     0.001 A 
HETATM   29  C   UNK N   1      51.432  50.199  60.852  0.00  0.00     0.017 A 
ENDBRANCH  22  24
ENDBRANCH  21  22
ENDBRANCH   1  21
BRANCH   4  30
HETATM   30  O   UNK N   1      43.847  52.194  62.189  0.00  0.00    -0.283 OA
BRANCH  30  31
HETATM   31  C   UNK N   1      43.154  51.909  63.323  0.00  0.00     0.259 C 
HETATM   32  O   UNK N   1      42.379  52.724  63.805  0.00  0.00    -0.265 OA
HETATM   33  C   UNK N   1      43.360  50.593  63.998  0.00  0.00     0.126 C 
ENDBRANCH  30  31
ENDBRANCH   4  30
BRANCH  13  34
HETATM   34  C   UNK N   1      50.990  53.669  59.233  0.00  0.00     0.266 C 
HETATM   35  O   UNK N   1      52.022  54.159  59.672  0.00  0.00    -0.265 OA
BRANCH  34  36
HETATM   36  O   UNK N   1      51.037  52.661  58.322  0.00  0.00    -0.326 OA
HETATM   37  C   UNK N   1      51.754  52.731  57.147  0.00  0.00     0.213 C 
ENDBRANCH  34  36
ENDBRANCH  13  34
BRANCH  11  38
HETATM   38  O   UNK N   1      47.364  55.915  59.347  0.00  0.00    -0.315 OA
BRANCH  38  39
HETATM   39  C   UNK N   1      47.191  56.313  58.057  0.00  0.00     0.255 C 
HETATM   40  O   UNK N   1      47.602  55.630  57.129  0.00  0.00    -0.266 OA
HETATM   41  C   UNK N   1      46.484  57.597  57.775  0.00  0.00     0.126 C 
ENDBRANCH  38  39
ENDBRANCH  11  38
TORSDOF 9
ENDMDL
MODEL 9
REMARK VINA RESULT:      -3.8      2.772      6.591
REMARK  9 active torsions:
REMARK  status: ('A' for Active; 'I' for Inactive)
REMARK    1  A    between atoms: C_2  and  O_3 
REMARK    2  A    between atoms: C_2  and  C_36 
REMARK    3  A    between atoms: O_3  and  C_4 
REMARK    4  A    between atoms: C_7  and  O_8 
REMARK    5  A    between atoms: O_8  and  C_9 
REMARK    6  A    between atoms: C_18  and  O_19 
REMARK    7  A    between atoms: O_19  and  C_20 
REMARK    8  A    between atoms: C_24  and  C_25 
REMARK    9  A    between atoms: C_25  and  O_27 
ROOT
HETATM    1  C   UNK N   1      29.024  40.010  59.640  0.00  0.00     0.148 C 
HETATM    2  C   UNK N   1      29.726  41.384  59.407  0.00  0.00     0.070 C 
HETATM    3  C   UNK N   1      30.532  41.527  60.685  0.00  0.00    -0.039 C 
HETATM    4  C   UNK N   1      31.454  42.478  60.995  0.00  0.00     0.067 C 
HETATM    5  C   UNK N   1      31.829  43.672  60.131  0.00  0.00     0.061 C 
HETATM    6  C   UNK N   1      30.732  44.726  60.098  0.00  0.00    -0.019 C 
HETATM    7  C   UNK N   1      30.448  45.465  59.007  0.00  0.00    -0.019 C 
HETATM    8  C   UNK N   1      29.524  46.680  59.036  0.00  0.00    -0.003 C 
HETATM    9  C   UNK N   1      29.968  47.620  60.193  0.00  0.00     0.021 C 
HETATM   10  C   UNK N   1      29.758  47.473  57.725  0.00  0.00     0.021 C 
HETATM   11  C   UNK N   1      27.991  46.379  59.207  0.00  0.00     0.144 C 
HETATM   12  C   UNK N   1      27.256  45.591  58.072  0.00  0.00     0.052 C 
HETATM   13  C   UNK N   1      27.096  44.060  58.249  0.00  0.00     0.116 C 
HETATM   14  C   UNK N   1      28.355  43.197  58.170  0.00  0.00    -0.073 C 
HETATM   15  C   UNK N   1      28.657  42.447  59.266  0.00  0.00    -0.012 C 
HETATM   16  C   UNK N   1      29.121  43.117  56.862  0.00  0.00     0.044 C 
HETATM   17  C   UNK N   1      32.485  43.294  58.790  0.00  0.00     0.021 C 
HETATM   18  C   UNK N   1      30.296  40.358  61.602  0.00  0.00     0.044 C 
HETATM   19  C   UNK N   1      29.951  39.260  60.607  0.00  0.00     0.016 C 
HETATM   20  C   UNK N   1      31.222  38.707  59.925  0.00  0.00     0.013 C 
ENDROOT
BRANCH   1  21
HETATM   21  O   UNK N   1      28.819  39.275  58.486  0.00  0.00    -0.311 OA
BRANCH  21  22
HETATM   22  C   UNK N   1      27.768  39.399  57.636  0.00  0.00     0.293 C 
HETATM   23  O   UNK N   1      26.631  39.176  58.017  0.00  0.00    -0.259 OA
BRANCH  22  24
HETATM   24  C   UNK N   1      28.017  39.822  56.238  0.00  0.00     0.039 A 
HETATM   25  C   UNK N   1      26.939  40.161  55.401  0.00  0.00     0.017 A 
HETATM   26  C   UNK N   1      27.167  40.552  54.079  0.00  0.00     0.001 A 
HETATM   27  C   UNK N   1      28.470  40.599  53.578  0.00  0.00     0.000 A 
HETATM   28  C   UNK N   1      29.549  40.261  54.400  0.00  0.00     0.001 A 
HETATM   29  C   UNK N   1      29.327  39.876  55.727  0.00  0.00     0.017 A 
ENDBRANCH  22  24
ENDBRANCH  21  22
ENDBRANCH   1  21
BRANCH   4  30
HETATM   30  O   UNK N   1      32.115  42.362  62.177  0.00  0.00    -0.283 OA
BRANCH  30  31
HETATM   31  C   UNK N   1      32.086  43.327  63.134  0.00  0.00     0.259 C 
HETATM   32  O   UNK N   1      31.045  43.602  63.716  0.00  0.00    -0.265 OA
HETATM   33  C   UNK N   1      33.338  44.073  63.460  0.00  0.00     0.126 C 
ENDBRANCH  30  31
ENDBRANCH   4  30
BRANCH  13  34
HETATM   34  C   UNK N   1      26.067  43.523  57.277  0.00  0.00     0.266 C 
HETATM   35  O   UNK N   1      25.493  42.465  57.499  0.00  0.00    -0.265 OA
BRANCH  34  36
HETATM   36  O   UNK N   1      25.771  44.249  56.166  0.00  0.00    -0.326 OA
HETATM   37  C   UNK N   1      25.628  43.696  54.912  0.00  0.00     0.213 C 
ENDBRANCH  34  36
ENDBRANCH  13  34
BRANCH  11  38
HETATM   38  O   UNK N   1      27.725  45.835  60.457  0.00  0.00    -0.315 OA
BRANCH  38  39
HETATM   39  C   UNK N   1      26.698  46.223  61.262  0.00  0.00     0.255 C 
HETATM   40  O   UNK N   1      26.488  47.408  61.485  0.00  0.00    -0.266 OA
HETATM   41  C   UNK N   1      25.815  45.187  61.874  0.00  0.00     0.126 C 
ENDBRANCH  38  39
ENDBRANCH  11  38
TORSDOF 9
ENDMDL
