MODEL 1
REMARK VINA RESULT:      -5.3      0.000      0.000
REMARK  9 active torsions:
REMARK  status: ('A' for Active; 'I' for Inactive)
REMARK    1  A    between atoms: C_7  and  O_8 
REMARK    2  A    between atoms: O_8  and  C_9 
REMARK    3  A    between atoms: C_12  and  O_13 
REMARK    4  A    between atoms: O_13  and  C_14 
REMARK    5  A    between atoms: C_18  and  O_19 
REMARK    6  A    between atoms: O_19  and  C_20 
REMARK    7  A    between atoms: C_20  and  C_22 
REMARK    8  A    between atoms: C_33  and  O_34 
REMARK    9  A    between atoms: O_34  and  C_35 
ROOT
HETATM    1  O   UNK N   1      25.589  43.236  54.992  0.00  0.00    -0.297 OA
HETATM    2  C   UNK N   1      26.417  42.554  55.581  0.00  0.00     0.141 C 
HETATM    3  C   UNK N   1      27.669  42.054  54.862  0.00  0.00     0.031 C 
HETATM    4  C   UNK N   1      28.853  42.683  55.594  0.00  0.00    -0.014 C 
HETATM    5  C   UNK N   1      29.864  42.018  56.192  0.00  0.00    -0.023 C 
HETATM    6  C   UNK N   1      30.977  42.794  56.872  0.00  0.00     0.036 C 
HETATM    7  C   UNK N   1      31.301  42.332  58.330  0.00  0.00     0.175 C 
HETATM    8  C   UNK N   1      30.067  42.214  59.331  0.00  0.00     0.107 C 
HETATM    9  C   UNK N   1      29.192  43.507  59.425  0.00  0.00     0.076 C 
HETATM   10  C   UNK N   1      30.032  44.390  60.375  0.00  0.00     0.146 C 
HETATM   11  C   UNK N   1      30.442  43.417  61.484  0.00  0.00     0.015 C 
HETATM   12  C   UNK N   1      30.553  42.036  60.802  0.00  0.00     0.049 C 
HETATM   13  C   UNK N   1      31.685  43.853  62.262  0.00  0.00     0.012 C 
HETATM   14  C   UNK N   1      27.795  43.199  60.012  0.00  0.00    -0.011 C 
HETATM   15  C   UNK N   1      26.598  43.239  59.347  0.00  0.00    -0.057 C 
HETATM   16  C   UNK N   1      26.454  43.589  57.864  0.00  0.00     0.167 C 
HETATM   17  C   UNK N   1      26.246  42.293  57.062  0.00  0.00     0.116 C 
HETATM   18  C   UNK N   1      25.345  42.822  60.085  0.00  0.00     0.046 C 
HETATM   19  C   UNK N   1      32.227  42.683  55.986  0.00  0.00     0.017 C 
HETATM   20  C   UNK N   1      27.677  40.510  54.843  0.00  0.00     0.027 C 
HETATM   21  C   UNK N   1      27.712  42.541  53.399  0.00  0.00     0.027 C 
ENDROOT
BRANCH  10  22
HETATM   22  O   UNK N   1      29.367  45.477  60.911  0.00  0.00    -0.311 OA
BRANCH  22  23
HETATM   23  C   UNK N   1      29.833  46.751  60.923  0.00  0.00     0.293 C 
HETATM   24  O   UNK N   1      30.258  47.245  61.956  0.00  0.00    -0.259 OA
BRANCH  23  25
HETATM   25  C   UNK N   1      29.827  47.532  59.660  0.00  0.00     0.039 A 
HETATM   26  C   UNK N   1      30.362  46.991  58.476  0.00  0.00     0.017 A 
HETATM   27  C   UNK N   1      30.331  47.731  57.288  0.00  0.00     0.001 A 
HETATM   28  C   UNK N   1      29.779  49.014  57.273  0.00  0.00     0.000 A 
HETATM   29  C   UNK N   1      29.253  49.562  58.446  0.00  0.00     0.001 A 
HETATM   30  C   UNK N   1      29.273  48.826  59.633  0.00  0.00     0.017 A 
ENDBRANCH  23  25
ENDBRANCH  22  23
ENDBRANCH  10  22
BRANCH   8  31
HETATM   31  O   UNK N   1      29.282  41.124  58.943  0.00  0.00    -0.307 OA
BRANCH  31  32
HETATM   32  C   UNK N   1      29.389  39.851  59.435  0.00  0.00     0.255 C 
HETATM   33  O   UNK N   1      30.385  39.173  59.222  0.00  0.00    -0.266 OA
HETATM   34  C   UNK N   1      28.293  39.283  60.276  0.00  0.00     0.126 C 
ENDBRANCH  31  32
ENDBRANCH   8  31
BRANCH   7  35
HETATM   35  O   UNK N   1      32.297  43.176  58.807  0.00  0.00    -0.313 OA
BRANCH  35  36
HETATM   36  C   UNK N   1      33.570  42.788  59.094  0.00  0.00     0.255 C 
HETATM   37  O   UNK N   1      34.527  43.470  58.754  0.00  0.00    -0.266 OA
HETATM   38  C   UNK N   1      33.793  41.533  59.871  0.00  0.00     0.126 C 
ENDBRANCH  35  36
ENDBRANCH   7  35
BRANCH  16  39
HETATM   39  O   UNK N   1      25.398  44.456  57.635  0.00  0.00    -0.311 OA
BRANCH  39  40
HETATM   40  C   UNK N   1      25.539  45.769  57.320  0.00  0.00     0.255 C 
HETATM   41  O   UNK N   1      24.754  46.317  56.561  0.00  0.00    -0.266 OA
HETATM   42  C   UNK N   1      26.645  46.560  57.940  0.00  0.00     0.126 C 
ENDBRANCH  39  40
ENDBRANCH  16  39
TORSDOF 9
ENDMDL
MODEL 2
REMARK VINA RESULT:      -5.0      3.128      6.099
REMARK  9 active torsions:
REMARK  status: ('A' for Active; 'I' for Inactive)
REMARK    1  A    between atoms: C_7  and  O_8 
REMARK    2  A    between atoms: O_8  and  C_9 
REMARK    3  A    between atoms: C_12  and  O_13 
REMARK    4  A    between atoms: O_13  and  C_14 
REMARK    5  A    between atoms: C_18  and  O_19 
REMARK    6  A    between atoms: O_19  and  C_20 
REMARK    7  A    between atoms: C_20  and  C_22 
REMARK    8  A    between atoms: C_33  and  O_34 
REMARK    9  A    between atoms: O_34  and  C_35 
ROOT
HETATM    1  O   UNK N   1      28.788  50.942  59.204  0.00  0.00    -0.297 OA
HETATM    2  C   UNK N   1      28.596  49.734  59.174  0.00  0.00     0.141 C 
HETATM    3  C   UNK N   1      28.911  48.926  57.916  0.00  0.00     0.031 C 
HETATM    4  C   UNK N   1      29.997  47.930  58.318  0.00  0.00    -0.014 C 
HETATM    5  C   UNK N   1      29.916  46.585  58.234  0.00  0.00    -0.023 C 
HETATM    6  C   UNK N   1      31.093  45.731  58.667  0.00  0.00     0.036 C 
HETATM    7  C   UNK N   1      30.732  44.570  59.651  0.00  0.00     0.175 C 
HETATM    8  C   UNK N   1      29.878  44.965  60.937  0.00  0.00     0.107 C 
HETATM    9  C   UNK N   1      30.493  46.131  61.781  0.00  0.00     0.076 C 
HETATM   10  C   UNK N   1      31.588  45.396  62.586  0.00  0.00     0.146 C 
HETATM   11  C   UNK N   1      30.879  44.126  63.063  0.00  0.00     0.015 C 
HETATM   12  C   UNK N   1      29.842  43.794  61.967  0.00  0.00     0.049 C 
HETATM   13  C   UNK N   1      31.828  42.981  63.418  0.00  0.00     0.012 C 
HETATM   14  C   UNK N   1      29.434  46.773  62.706  0.00  0.00    -0.011 C 
HETATM   15  C   UNK N   1      28.897  48.028  62.591  0.00  0.00    -0.057 C 
HETATM   16  C   UNK N   1      29.261  49.017  61.481  0.00  0.00     0.167 C 
HETATM   17  C   UNK N   1      28.139  49.024  60.429  0.00  0.00     0.116 C 
HETATM   18  C   UNK N   1      27.808  48.442  63.557  0.00  0.00     0.046 C 
HETATM   19  C   UNK N   1      31.750  45.170  57.397  0.00  0.00     0.017 C 
HETATM   20  C   UNK N   1      27.618  48.277  57.377  0.00  0.00     0.027 C 
HETATM   21  C   UNK N   1      29.488  49.820  56.799  0.00  0.00     0.027 C 
ENDROOT
BRANCH  10  22
HETATM   22  O   UNK N   1      32.097  46.096  63.664  0.00  0.00    -0.311 OA
BRANCH  22  23
HETATM   23  C   UNK N   1      33.333  45.924  64.195  0.00  0.00     0.293 C 
HETATM   24  O   UNK N   1      33.472  45.343  65.261  0.00  0.00    -0.259 OA
BRANCH  23  25
HETATM   25  C   UNK N   1      34.514  46.441  63.459  0.00  0.00     0.039 A 
HETATM   26  C   UNK N   1      34.730  47.826  63.327  0.00  0.00     0.017 A 
HETATM   27  C   UNK N   1      35.858  48.300  62.648  0.00  0.00     0.001 A 
HETATM   28  C   UNK N   1      36.771  47.402  62.089  0.00  0.00     0.000 A 
HETATM   29  C   UNK N   1      36.560  46.026  62.208  0.00  0.00     0.001 A 
HETATM   30  C   UNK N   1      35.440  45.546  62.892  0.00  0.00     0.017 A 
ENDBRANCH  23  25
ENDBRANCH  22  23
ENDBRANCH  10  22
BRANCH   8  31
HETATM   31  O   UNK N   1      28.582  45.293  60.527  0.00  0.00    -0.307 OA
BRANCH  31  32
HETATM   32  C   UNK N   1      27.502  44.453  60.556  0.00  0.00     0.255 C 
HETATM   33  O   UNK N   1      27.383  43.550  59.739  0.00  0.00    -0.266 OA
HETATM   34  C   UNK N   1      26.464  44.610  61.618  0.00  0.00     0.126 C 
ENDBRANCH  31  32
ENDBRANCH   8  31
BRANCH   7  35
HETATM   35  O   UNK N   1      31.924  43.934  59.976  0.00  0.00    -0.313 OA
BRANCH  35  36
HETATM   36  C   UNK N   1      32.205  42.630  59.705  0.00  0.00     0.255 C 
HETATM   37  O   UNK N   1      31.384  41.909  59.154  0.00  0.00    -0.266 OA
HETATM   38  C   UNK N   1      33.553  42.087  60.050  0.00  0.00     0.126 C 
ENDBRANCH  35  36
ENDBRANCH   7  35
BRANCH  16  39
HETATM   39  O   UNK N   1      29.453  50.300  61.971  0.00  0.00    -0.311 OA
BRANCH  39  40
HETATM   40  C   UNK N   1      30.165  50.595  63.089  0.00  0.00     0.255 C 
HETATM   41  O   UNK N   1      29.721  51.364  63.926  0.00  0.00    -0.266 OA
HETATM   42  C   UNK N   1      31.488  49.938  63.313  0.00  0.00     0.126 C 
ENDBRANCH  39  40
ENDBRANCH  16  39
TORSDOF 9
ENDMDL
MODEL 3
REMARK VINA RESULT:      -5.0      2.965      5.287
REMARK  9 active torsions:
REMARK  status: ('A' for Active; 'I' for Inactive)
REMARK    1  A    between atoms: C_7  and  O_8 
REMARK    2  A    between atoms: O_8  and  C_9 
REMARK    3  A    between atoms: C_12  and  O_13 
REMARK    4  A    between atoms: O_13  and  C_14 
REMARK    5  A    between atoms: C_18  and  O_19 
REMARK    6  A    between atoms: O_19  and  C_20 
REMARK    7  A    between atoms: C_20  and  C_22 
REMARK    8  A    between atoms: C_33  and  O_34 
REMARK    9  A    between atoms: O_34  and  C_35 
ROOT
HETATM    1  O   UNK N   1      29.601  37.569  53.975  0.00  0.00    -0.297 OA
HETATM    2  C   UNK N   1      29.044  37.640  55.062  0.00  0.00     0.141 C 
HETATM    3  C   UNK N   1      29.473  36.737  56.218  0.00  0.00     0.031 C 
HETATM    4  C   UNK N   1      29.974  37.672  57.317  0.00  0.00    -0.014 C 
HETATM    5  C   UNK N   1      29.488  37.757  58.574  0.00  0.00    -0.023 C 
HETATM    6  C   UNK N   1      30.106  38.735  59.556  0.00  0.00     0.036 C 
HETATM    7  C   UNK N   1      29.081  39.654  60.297  0.00  0.00     0.175 C 
HETATM    8  C   UNK N   1      28.030  40.431  59.384  0.00  0.00     0.107 C 
HETATM    9  C   UNK N   1      28.678  41.271  58.234  0.00  0.00     0.076 C 
HETATM   10  C   UNK N   1      29.139  42.538  58.989  0.00  0.00     0.146 C 
HETATM   11  C   UNK N   1      27.937  42.875  59.874  0.00  0.00     0.015 C 
HETATM   12  C   UNK N   1      27.273  41.521  60.204  0.00  0.00     0.049 C 
HETATM   13  C   UNK N   1      28.283  43.735  61.090  0.00  0.00     0.012 C 
HETATM   14  C   UNK N   1      27.646  41.604  57.132  0.00  0.00    -0.011 C 
HETATM   15  C   UNK N   1      27.621  41.109  55.855  0.00  0.00    -0.057 C 
HETATM   16  C   UNK N   1      28.635  40.101  55.307  0.00  0.00     0.167 C 
HETATM   17  C   UNK N   1      27.992  38.704  55.289  0.00  0.00     0.116 C 
HETATM   18  C   UNK N   1      26.474  41.499  54.949  0.00  0.00     0.046 C 
HETATM   19  C   UNK N   1      30.923  37.921  60.569  0.00  0.00     0.017 C 
HETATM   20  C   UNK N   1      28.294  35.833  56.637  0.00  0.00     0.027 C 
HETATM   21  C   UNK N   1      30.646  35.821  55.813  0.00  0.00     0.027 C 
ENDROOT
BRANCH  10  22
HETATM   22  O   UNK N   1      29.464  43.616  58.187  0.00  0.00    -0.311 OA
BRANCH  22  23
HETATM   23  C   UNK N   1      30.633  44.302  58.234  0.00  0.00     0.293 C 
HETATM   24  O   UNK N   1      30.722  45.408  57.722  0.00  0.00    -0.259 OA
BRANCH  23  25
HETATM   25  C   UNK N   1      31.799  43.695  58.923  0.00  0.00     0.039 A 
HETATM   26  C   UNK N   1      32.853  43.123  58.187  0.00  0.00     0.017 A 
HETATM   27  C   UNK N   1      33.956  42.572  58.850  0.00  0.00     0.001 A 
HETATM   28  C   UNK N   1      34.012  42.578  60.245  0.00  0.00     0.000 A 
HETATM   29  C   UNK N   1      32.966  43.136  60.984  0.00  0.00     0.001 A 
HETATM   30  C   UNK N   1      31.866  43.695  60.329  0.00  0.00     0.017 A 
ENDBRANCH  23  25
ENDBRANCH  22  23
ENDBRANCH  10  22
BRANCH   8  31
HETATM   31  O   UNK N   1      27.126  39.503  58.858  0.00  0.00    -0.307 OA
BRANCH  31  32
HETATM   32  C   UNK N   1      25.884  39.227  59.362  0.00  0.00     0.255 C 
HETATM   33  O   UNK N   1      25.749  38.576  60.389  0.00  0.00    -0.266 OA
HETATM   34  C   UNK N   1      24.667  39.757  58.675  0.00  0.00     0.126 C 
ENDBRANCH  31  32
ENDBRANCH   8  31
BRANCH   7  35
HETATM   35  O   UNK N   1      29.819  40.509  61.106  0.00  0.00    -0.313 OA
BRANCH  35  36
HETATM   36  C   UNK N   1      29.668  40.622  62.455  0.00  0.00     0.255 C 
HETATM   37  O   UNK N   1      30.309  41.446  63.093  0.00  0.00    -0.266 OA
HETATM   38  C   UNK N   1      28.675  39.753  63.154  0.00  0.00     0.126 C 
ENDBRANCH  35  36
ENDBRANCH   7  35
BRANCH  16  39
HETATM   39  O   UNK N   1      29.064  40.436  54.033  0.00  0.00    -0.311 OA
BRANCH  39  40
HETATM   40  C   UNK N   1      29.867  41.494  53.749  0.00  0.00     0.255 C 
HETATM   41  O   UNK N   1      29.650  42.197  52.774  0.00  0.00    -0.266 OA
HETATM   42  C   UNK N   1      31.003  41.822  54.662  0.00  0.00     0.126 C 
ENDBRANCH  39  40
ENDBRANCH  16  39
TORSDOF 9
ENDMDL
MODEL 4
REMARK VINA RESULT:      -4.6      2.750      4.720
REMARK  9 active torsions:
REMARK  status: ('A' for Active; 'I' for Inactive)
REMARK    1  A    between atoms: C_7  and  O_8 
REMARK    2  A    between atoms: O_8  and  C_9 
REMARK    3  A    between atoms: C_12  and  O_13 
REMARK    4  A    between atoms: O_13  and  C_14 
REMARK    5  A    between atoms: C_18  and  O_19 
REMARK    6  A    between atoms: O_19  and  C_20 
REMARK    7  A    between atoms: C_20  and  C_22 
REMARK    8  A    between atoms: C_33  and  O_34 
REMARK    9  A    between atoms: O_34  and  C_35 
ROOT
HETATM    1  O   UNK N   1      29.565  37.583  53.998  0.00  0.00    -0.297 OA
HETATM    2  C   UNK N   1      29.020  37.650  55.091  0.00  0.00     0.141 C 
HETATM    3  C   UNK N   1      29.450  36.731  56.234  0.00  0.00     0.031 C 
HETATM    4  C   UNK N   1      29.974  37.649  57.337  0.00  0.00    -0.014 C 
HETATM    5  C   UNK N   1      29.502  37.727  58.599  0.00  0.00    -0.023 C 
HETATM    6  C   UNK N   1      30.142  38.688  59.584  0.00  0.00     0.036 C 
HETATM    7  C   UNK N   1      29.136  39.613  60.344  0.00  0.00     0.175 C 
HETATM    8  C   UNK N   1      28.085  40.411  59.450  0.00  0.00     0.107 C 
HETATM    9  C   UNK N   1      28.732  41.254  58.302  0.00  0.00     0.076 C 
HETATM   10  C   UNK N   1      29.216  42.508  59.063  0.00  0.00     0.146 C 
HETATM   11  C   UNK N   1      28.027  42.852  59.964  0.00  0.00     0.015 C 
HETATM   12  C   UNK N   1      27.350  41.502  60.289  0.00  0.00     0.049 C 
HETATM   13  C   UNK N   1      28.397  43.695  61.185  0.00  0.00     0.012 C 
HETATM   14  C   UNK N   1      27.693  41.610  57.214  0.00  0.00    -0.011 C 
HETATM   15  C   UNK N   1      27.649  41.128  55.932  0.00  0.00    -0.057 C 
HETATM   16  C   UNK N   1      28.644  40.113  55.364  0.00  0.00     0.167 C 
HETATM   17  C   UNK N   1      27.984  38.724  55.339  0.00  0.00     0.116 C 
HETATM   18  C   UNK N   1      26.497  41.541  55.041  0.00  0.00     0.046 C 
HETATM   19  C   UNK N   1      30.960  37.854  60.581  0.00  0.00     0.017 C 
HETATM   20  C   UNK N   1      28.264  35.837  56.657  0.00  0.00     0.027 C 
HETATM   21  C   UNK N   1      30.608  35.804  55.808  0.00  0.00     0.027 C 
ENDROOT
BRANCH  10  22
HETATM   22  O   UNK N   1      29.546  43.590  58.269  0.00  0.00    -0.311 OA
BRANCH  22  23
HETATM   23  C   UNK N   1      30.604  44.415  58.469  0.00  0.00     0.293 C 
HETATM   24  O   UNK N   1      31.723  43.956  58.638  0.00  0.00    -0.259 OA
BRANCH  23  25
HETATM   25  C   UNK N   1      30.384  45.883  58.469  0.00  0.00     0.039 A 
HETATM   26  C   UNK N   1      30.724  46.663  57.348  0.00  0.00     0.017 A 
HETATM   27  C   UNK N   1      30.492  48.043  57.354  0.00  0.00     0.001 A 
HETATM   28  C   UNK N   1      29.931  48.656  58.477  0.00  0.00     0.000 A 
HETATM   29  C   UNK N   1      29.598  47.891  59.597  0.00  0.00     0.001 A 
HETATM   30  C   UNK N   1      29.819  46.512  59.595  0.00  0.00     0.017 A 
ENDBRANCH  23  25
ENDBRANCH  22  23
ENDBRANCH  10  22
BRANCH   8  31
HETATM   31  O   UNK N   1      27.165  39.499  58.924  0.00  0.00    -0.307 OA
BRANCH  31  32
HETATM   32  C   UNK N   1      26.035  39.055  59.556  0.00  0.00     0.255 C 
HETATM   33  O   UNK N   1      26.104  38.399  60.587  0.00  0.00    -0.266 OA
HETATM   34  C   UNK N   1      24.690  39.401  59.007  0.00  0.00     0.126 C 
ENDBRANCH  31  32
ENDBRANCH   8  31
BRANCH   7  35
HETATM   35  O   UNK N   1      29.893  40.450  61.154  0.00  0.00    -0.313 OA
BRANCH  35  36
HETATM   36  C   UNK N   1      29.735  40.577  62.501  0.00  0.00     0.255 C 
HETATM   37  O   UNK N   1      30.327  41.447  63.125  0.00  0.00    -0.266 OA
HETATM   38  C   UNK N   1      28.792  39.666  63.214  0.00  0.00     0.126 C 
ENDBRANCH  35  36
ENDBRANCH   7  35
BRANCH  16  39
HETATM   39  O   UNK N   1      29.064  40.456  54.089  0.00  0.00    -0.311 OA
BRANCH  39  40
HETATM   40  C   UNK N   1      29.882  41.502  53.807  0.00  0.00     0.255 C 
HETATM   41  O   UNK N   1      29.684  42.202  52.826  0.00  0.00    -0.266 OA
HETATM   42  C   UNK N   1      31.013  41.822  54.729  0.00  0.00     0.126 C 
ENDBRANCH  39  40
ENDBRANCH  16  39
TORSDOF 9
ENDMDL
MODEL 5
REMARK VINA RESULT:      -4.6      2.993      5.582
REMARK  9 active torsions:
REMARK  status: ('A' for Active; 'I' for Inactive)
REMARK    1  A    between atoms: C_7  and  O_8 
REMARK    2  A    between atoms: O_8  and  C_9 
REMARK    3  A    between atoms: C_12  and  O_13 
REMARK    4  A    between atoms: O_13  and  C_14 
REMARK    5  A    between atoms: C_18  and  O_19 
REMARK    6  A    between atoms: O_19  and  C_20 
REMARK    7  A    between atoms: C_20  and  C_22 
REMARK    8  A    between atoms: C_33  and  O_34 
REMARK    9  A    between atoms: O_34  and  C_35 
ROOT
HETATM    1  O   UNK N   1      30.366  40.676  54.486  0.00  0.00    -0.297 OA
HETATM    2  C   UNK N   1      29.472  40.276  55.219  0.00  0.00     0.141 C 
HETATM    3  C   UNK N   1      29.282  38.781  55.474  0.00  0.00     0.031 C 
HETATM    4  C   UNK N   1      29.502  38.580  56.972  0.00  0.00    -0.014 C 
HETATM    5  C   UNK N   1      28.613  38.060  57.845  0.00  0.00    -0.023 C 
HETATM    6  C   UNK N   1      28.990  37.916  59.308  0.00  0.00     0.036 C 
HETATM    7  C   UNK N   1      27.943  38.497  60.314  0.00  0.00     0.175 C 
HETATM    8  C   UNK N   1      27.453  39.990  60.050  0.00  0.00     0.107 C 
HETATM    9  C   UNK N   1      28.614  41.031  59.917  0.00  0.00     0.076 C 
HETATM   10  C   UNK N   1      28.982  41.286  61.396  0.00  0.00     0.146 C 
HETATM   11  C   UNK N   1      27.618  41.439  62.075  0.00  0.00     0.015 C 
HETATM   12  C   UNK N   1      26.652  40.541  61.271  0.00  0.00     0.049 C 
HETATM   13  C   UNK N   1      27.641  41.172  63.580  0.00  0.00     0.012 C 
HETATM   14  C   UNK N   1      28.133  42.322  59.215  0.00  0.00    -0.011 C 
HETATM   15  C   UNK N   1      28.490  42.759  57.967  0.00  0.00    -0.057 C 
HETATM   16  C   UNK N   1      29.440  42.004  57.035  0.00  0.00     0.167 C 
HETATM   17  C   UNK N   1      28.614  41.280  55.958  0.00  0.00     0.116 C 
HETATM   18  C   UNK N   1      27.842  44.015  57.426  0.00  0.00     0.046 C 
HETATM   19  C   UNK N   1      29.223  36.423  59.582  0.00  0.00     0.017 C 
HETATM   20  C   UNK N   1      27.893  38.339  54.967  0.00  0.00     0.027 C 
HETATM   21  C   UNK N   1      30.342  37.943  54.730  0.00  0.00     0.027 C 
ENDROOT
BRANCH  10  22
HETATM   22  O   UNK N   1      29.761  42.404  61.626  0.00  0.00    -0.311 OA
BRANCH  22  23
HETATM   23  C   UNK N   1      30.986  42.399  62.209  0.00  0.00     0.293 C 
HETATM   24  O   UNK N   1      31.092  42.429  63.425  0.00  0.00    -0.259 OA
BRANCH  23  25
HETATM   25  C   UNK N   1      32.194  42.346  61.348  0.00  0.00     0.039 A 
HETATM   26  C   UNK N   1      32.380  41.294  60.431  0.00  0.00     0.017 A 
HETATM   27  C   UNK N   1      33.513  41.268  59.611  0.00  0.00     0.001 A 
HETATM   28  C   UNK N   1      34.472  42.279  59.705  0.00  0.00     0.000 A 
HETATM   29  C   UNK N   1      34.301  43.322  60.618  0.00  0.00     0.001 A 
HETATM   30  C   UNK N   1      33.167  43.359  61.434  0.00  0.00     0.017 A 
ENDBRANCH  23  25
ENDBRANCH  22  23
ENDBRANCH  10  22
BRANCH   8  31
HETATM   31  O   UNK N   1      26.657  40.001  58.901  0.00  0.00    -0.307 OA
BRANCH  31  32
HETATM   32  C   UNK N   1      25.296  39.861  58.874  0.00  0.00     0.255 C 
HETATM   33  O   UNK N   1      24.562  40.836  58.770  0.00  0.00    -0.266 OA
HETATM   34  C   UNK N   1      24.686  38.499  58.934  0.00  0.00     0.126 C 
ENDBRANCH  31  32
ENDBRANCH   8  31
BRANCH   7  35
HETATM   35  O   UNK N   1      28.471  38.325  61.588  0.00  0.00    -0.313 OA
BRANCH  35  36
HETATM   36  C   UNK N   1      27.897  37.579  62.571  0.00  0.00     0.255 C 
HETATM   37  O   UNK N   1      26.875  36.940  62.361  0.00  0.00    -0.266 OA
HETATM   38  C   UNK N   1      28.551  37.510  63.911  0.00  0.00     0.126 C 
ENDBRANCH  35  36
ENDBRANCH   7  35
BRANCH  16  39
HETATM   39  O   UNK N   1      30.358  42.849  56.432  0.00  0.00    -0.311 OA
BRANCH  39  40
HETATM   40  C   UNK N   1      31.522  43.250  57.004  0.00  0.00     0.255 C 
HETATM   41  O   UNK N   1      32.597  42.910  56.537  0.00  0.00    -0.266 OA
HETATM   42  C   UNK N   1      31.484  44.150  58.197  0.00  0.00     0.126 C 
ENDBRANCH  39  40
ENDBRANCH  16  39
TORSDOF 9
ENDMDL
MODEL 6
REMARK VINA RESULT:      -4.5      1.946      6.792
REMARK  9 active torsions:
REMARK  status: ('A' for Active; 'I' for Inactive)
REMARK    1  A    between atoms: C_7  and  O_8 
REMARK    2  A    between atoms: O_8  and  C_9 
REMARK    3  A    between atoms: C_12  and  O_13 
REMARK    4  A    between atoms: O_13  and  C_14 
REMARK    5  A    between atoms: C_18  and  O_19 
REMARK    6  A    between atoms: O_19  and  C_20 
REMARK    7  A    between atoms: C_20  and  C_22 
REMARK    8  A    between atoms: C_33  and  O_34 
REMARK    9  A    between atoms: O_34  and  C_35 
ROOT
HETATM    1  O   UNK N   1      33.256  40.119  59.975  0.00  0.00    -0.297 OA
HETATM    2  C   UNK N   1      32.622  41.106  60.321  0.00  0.00     0.141 C 
HETATM    3  C   UNK N   1      33.124  42.511  59.989  0.00  0.00     0.031 C 
HETATM    4  C   UNK N   1      32.059  43.137  59.090  0.00  0.00    -0.014 C 
HETATM    5  C   UNK N   1      31.373  44.272  59.340  0.00  0.00    -0.023 C 
HETATM    6  C   UNK N   1      30.350  44.769  58.336  0.00  0.00     0.036 C 
HETATM    7  C   UNK N   1      28.952  45.119  58.944  0.00  0.00     0.175 C 
HETATM    8  C   UNK N   1      28.277  44.006  59.864  0.00  0.00     0.107 C 
HETATM    9  C   UNK N   1      28.164  42.599  59.190  0.00  0.00     0.076 C 
HETATM   10  C   UNK N   1      26.922  42.779  58.288  0.00  0.00     0.146 C 
HETATM   11  C   UNK N   1      25.926  43.495  59.204  0.00  0.00     0.015 C 
HETATM   12  C   UNK N   1      26.785  44.353  60.159  0.00  0.00     0.049 C 
HETATM   13  C   UNK N   1      24.836  44.262  58.455  0.00  0.00     0.012 C 
HETATM   14  C   UNK N   1      27.953  41.487  60.243  0.00  0.00    -0.011 C 
HETATM   15  C   UNK N   1      28.847  40.510  60.595  0.00  0.00    -0.057 C 
HETATM   16  C   UNK N   1      30.248  40.374  59.993  0.00  0.00     0.167 C 
HETATM   17  C   UNK N   1      31.278  40.927  60.992  0.00  0.00     0.116 C 
HETATM   18  C   UNK N   1      28.478  39.559  61.712  0.00  0.00     0.046 C 
HETATM   19  C   UNK N   1      30.948  45.996  57.633  0.00  0.00     0.017 C 
HETATM   20  C   UNK N   1      33.395  43.289  61.295  0.00  0.00     0.027 C 
HETATM   21  C   UNK N   1      34.442  42.465  59.189  0.00  0.00     0.027 C 
ENDROOT
BRANCH  10  22
HETATM   22  O   UNK N   1      26.372  41.607  57.803  0.00  0.00    -0.311 OA
BRANCH  22  23
HETATM   23  C   UNK N   1      26.997  40.732  56.976  0.00  0.00     0.293 C 
HETATM   24  O   UNK N   1      26.946  39.531  57.194  0.00  0.00    -0.259 OA
BRANCH  23  25
HETATM   25  C   UNK N   1      27.735  41.254  55.799  0.00  0.00     0.039 A 
HETATM   26  C   UNK N   1      29.141  41.326  55.804  0.00  0.00     0.017 A 
HETATM   27  C   UNK N   1      29.825  41.801  54.680  0.00  0.00     0.001 A 
HETATM   28  C   UNK N   1      29.117  42.216  53.549  0.00  0.00     0.000 A 
HETATM   29  C   UNK N   1      27.722  42.156  53.539  0.00  0.00     0.001 A 
HETATM   30  C   UNK N   1      27.032  41.676  54.655  0.00  0.00     0.017 A 
ENDBRANCH  23  25
ENDBRANCH  22  23
ENDBRANCH  10  22
BRANCH   8  31
HETATM   31  O   UNK N   1      29.000  43.916  61.057  0.00  0.00    -0.307 OA
BRANCH  31  32
HETATM   32  C   UNK N   1      28.835  44.722  62.151  0.00  0.00     0.255 C 
HETATM   33  O   UNK N   1      28.206  44.339  63.129  0.00  0.00    -0.266 OA
HETATM   34  C   UNK N   1      29.458  46.079  62.178  0.00  0.00     0.126 C 
ENDBRANCH  31  32
ENDBRANCH   8  31
BRANCH   7  35
HETATM   35  O   UNK N   1      28.138  45.503  57.886  0.00  0.00    -0.313 OA
BRANCH  35  36
HETATM   36  C   UNK N   1      27.496  46.700  57.796  0.00  0.00     0.255 C 
HETATM   37  O   UNK N   1      26.599  46.875  56.983  0.00  0.00    -0.266 OA
HETATM   38  C   UNK N   1      27.868  47.800  58.735  0.00  0.00     0.126 C 
ENDBRANCH  35  36
ENDBRANCH   7  35
BRANCH  16  39
HETATM   39  O   UNK N   1      30.554  39.058  59.684  0.00  0.00    -0.311 OA
BRANCH  39  40
HETATM   40  C   UNK N   1      29.937  38.335  58.715  0.00  0.00     0.255 C 
HETATM   41  O   UNK N   1      29.973  38.696  57.549  0.00  0.00    -0.266 OA
HETATM   42  C   UNK N   1      29.240  37.063  59.076  0.00  0.00     0.126 C 
ENDBRANCH  39  40
ENDBRANCH  16  39
TORSDOF 9
ENDMDL
MODEL 7
REMARK VINA RESULT:      -4.4      1.768      6.432
REMARK  9 active torsions:
REMARK  status: ('A' for Active; 'I' for Inactive)
REMARK    1  A    between atoms: C_7  and  O_8 
REMARK    2  A    between atoms: O_8  and  C_9 
REMARK    3  A    between atoms: C_12  and  O_13 
REMARK    4  A    between atoms: O_13  and  C_14 
REMARK    5  A    between atoms: C_18  and  O_19 
REMARK    6  A    between atoms: O_19  and  C_20 
REMARK    7  A    between atoms: C_20  and  C_22 
REMARK    8  A    between atoms: C_33  and  O_34 
REMARK    9  A    between atoms: O_34  and  C_35 
ROOT
HETATM    1  O   UNK N   1      28.709  47.329  62.045  0.00  0.00    -0.297 OA
HETATM    2  C   UNK N   1      29.436  46.386  61.763  0.00  0.00     0.141 C 
HETATM    3  C   UNK N   1      29.530  45.172  62.686  0.00  0.00     0.031 C 
HETATM    4  C   UNK N   1      29.024  43.984  61.870  0.00  0.00    -0.014 C 
HETATM    5  C   UNK N   1      29.716  42.860  61.586  0.00  0.00    -0.023 C 
HETATM    6  C   UNK N   1      29.064  41.761  60.766  0.00  0.00     0.036 C 
HETATM    7  C   UNK N   1      29.916  41.250  59.559  0.00  0.00     0.175 C 
HETATM    8  C   UNK N   1      30.490  42.362  58.571  0.00  0.00     0.107 C 
HETATM    9  C   UNK N   1      29.407  43.340  58.008  0.00  0.00     0.076 C 
HETATM   10  C   UNK N   1      28.772  42.494  56.882  0.00  0.00     0.146 C 
HETATM   11  C   UNK N   1      29.986  41.885  56.175  0.00  0.00     0.015 C 
HETATM   12  C   UNK N   1      31.060  41.715  57.271  0.00  0.00     0.049 C 
HETATM   13  C   UNK N   1      29.670  40.617  55.382  0.00  0.00     0.012 C 
HETATM   14  C   UNK N   1      30.050  44.635  57.462  0.00  0.00    -0.011 C 
HETATM   15  C   UNK N   1      29.948  45.891  57.998  0.00  0.00    -0.057 C 
HETATM   16  C   UNK N   1      29.172  46.216  59.277  0.00  0.00     0.167 C 
HETATM   17  C   UNK N   1      30.166  46.382  60.438  0.00  0.00     0.116 C 
HETATM   18  C   UNK N   1      30.724  47.020  57.353  0.00  0.00     0.046 C 
HETATM   19  C   UNK N   1      28.740  40.602  61.720  0.00  0.00     0.017 C 
HETATM   20  C   UNK N   1      30.977  45.022  63.202  0.00  0.00     0.027 C 
HETATM   21  C   UNK N   1      28.608  45.322  63.913  0.00  0.00     0.027 C 
ENDROOT
BRANCH  10  22
HETATM   22  O   UNK N   1      27.996  43.200  55.981  0.00  0.00    -0.311 OA
BRANCH  22  23
HETATM   23  C   UNK N   1      26.925  42.704  55.314  0.00  0.00     0.293 C 
HETATM   24  O   UNK N   1      25.988  42.212  55.925  0.00  0.00    -0.259 OA
BRANCH  23  25
HETATM   25  C   UNK N   1      26.902  42.776  53.831  0.00  0.00     0.039 A 
HETATM   26  C   UNK N   1      25.683  42.738  53.127  0.00  0.00     0.017 A 
HETATM   27  C   UNK N   1      25.675  42.827  51.730  0.00  0.00     0.001 A 
HETATM   28  C   UNK N   1      26.876  42.945  51.026  0.00  0.00     0.000 A 
HETATM   29  C   UNK N   1      28.090  42.975  51.716  0.00  0.00     0.001 A 
HETATM   30  C   UNK N   1      28.106  42.895  53.111  0.00  0.00     0.017 A 
ENDBRANCH  23  25
ENDBRANCH  22  23
ENDBRANCH  10  22
BRANCH   8  31
HETATM   31  O   UNK N   1      31.490  43.076  59.238  0.00  0.00    -0.307 OA
BRANCH  31  32
HETATM   32  C   UNK N   1      32.824  42.766  59.240  0.00  0.00     0.255 C 
HETATM   33  O   UNK N   1      33.602  43.320  58.474  0.00  0.00    -0.266 OA
HETATM   34  C   UNK N   1      33.354  41.765  60.213  0.00  0.00     0.126 C 
ENDBRANCH  31  32
ENDBRANCH   8  31
BRANCH   7  35
HETATM   35  O   UNK N   1      29.151  40.295  58.902  0.00  0.00    -0.313 OA
BRANCH  35  36
HETATM   36  C   UNK N   1      29.510  38.992  58.739  0.00  0.00     0.255 C 
HETATM   37  O   UNK N   1      28.874  38.251  58.002  0.00  0.00    -0.266 OA
HETATM   38  C   UNK N   1      30.723  38.476  59.440  0.00  0.00     0.126 C 
ENDBRANCH  35  36
ENDBRANCH   7  35
BRANCH  16  39
HETATM   39  O   UNK N   1      28.410  47.367  59.143  0.00  0.00    -0.311 OA
BRANCH  39  40
HETATM   40  C   UNK N   1      27.336  47.483  58.321  0.00  0.00     0.255 C 
HETATM   41  O   UNK N   1      26.412  46.688  58.385  0.00  0.00    -0.266 OA
HETATM   42  C   UNK N   1      27.268  48.622  57.356  0.00  0.00     0.126 C 
ENDBRANCH  39  40
ENDBRANCH  16  39
TORSDOF 9
ENDMDL
MODEL 8
REMARK VINA RESULT:      -4.2     18.428     22.356
REMARK  9 active torsions:
REMARK  status: ('A' for Active; 'I' for Inactive)
REMARK    1  A    between atoms: C_7  and  O_8 
REMARK    2  A    between atoms: O_8  and  C_9 
REMARK    3  A    between atoms: C_12  and  O_13 
REMARK    4  A    between atoms: O_13  and  C_14 
REMARK    5  A    between atoms: C_18  and  O_19 
REMARK    6  A    between atoms: O_19  and  C_20 
REMARK    7  A    between atoms: C_20  and  C_22 
REMARK    8  A    between atoms: C_33  and  O_34 
REMARK    9  A    between atoms: O_34  and  C_35 
ROOT
HETATM    1  O   UNK N   1      50.224  47.484  59.545  0.00  0.00    -0.297 OA
HETATM    2  C   UNK N   1      50.734  48.595  59.602  0.00  0.00     0.141 C 
HETATM    3  C   UNK N   1      51.690  49.070  58.508  0.00  0.00     0.031 C 
HETATM    4  C   UNK N   1      51.027  50.292  57.874  0.00  0.00    -0.014 C 
HETATM    5  C   UNK N   1      51.550  51.534  57.803  0.00  0.00    -0.023 C 
HETATM    6  C   UNK N   1      50.766  52.644  57.128  0.00  0.00     0.036 C 
HETATM    7  C   UNK N   1      50.637  53.959  57.965  0.00  0.00     0.175 C 
HETATM    8  C   UNK N   1      50.124  53.801  59.465  0.00  0.00     0.107 C 
HETATM    9  C   UNK N   1      48.777  53.016  59.603  0.00  0.00     0.076 C 
HETATM   10  C   UNK N   1      47.740  54.100  59.235  0.00  0.00     0.146 C 
HETATM   11  C   UNK N   1      48.228  55.328  60.009  0.00  0.00     0.015 C 
HETATM   12  C   UNK N   1      49.764  55.187  60.083  0.00  0.00     0.049 C 
HETATM   13  C   UNK N   1      47.730  56.657  59.441  0.00  0.00     0.012 C 
HETATM   14  C   UNK N   1      48.576  52.494  61.044  0.00  0.00    -0.011 C 
HETATM   15  C   UNK N   1      48.610  51.188  61.456  0.00  0.00    -0.057 C 
HETATM   16  C   UNK N   1      48.879  50.003  60.525  0.00  0.00     0.167 C 
HETATM   17  C   UNK N   1      50.333  49.540  60.713  0.00  0.00     0.116 C 
HETATM   18  C   UNK N   1      48.468  50.891  62.933  0.00  0.00     0.046 C 
HETATM   19  C   UNK N   1      51.440  52.933  55.779  0.00  0.00     0.017 C 
HETATM   20  C   UNK N   1      53.083  49.342  59.116  0.00  0.00     0.027 C 
HETATM   21  C   UNK N   1      51.860  48.006  57.404  0.00  0.00     0.027 C 
ENDROOT
BRANCH  10  22
HETATM   22  O   UNK N   1      46.433  53.805  59.575  0.00  0.00    -0.311 OA
BRANCH  22  23
HETATM   23  C   UNK N   1      45.724  54.413  60.559  0.00  0.00     0.293 C 
HETATM   24  O   UNK N   1      45.160  55.476  60.350  0.00  0.00    -0.259 OA
BRANCH  23  25
HETATM   25  C   UNK N   1      45.636  53.763  61.891  0.00  0.00     0.039 A 
HETATM   26  C   UNK N   1      46.201  54.371  63.028  0.00  0.00     0.017 A 
HETATM   27  C   UNK N   1      46.093  53.757  64.281  0.00  0.00     0.001 A 
HETATM   28  C   UNK N   1      45.433  52.533  64.409  0.00  0.00     0.000 A 
HETATM   29  C   UNK N   1      44.877  51.918  63.285  0.00  0.00     0.001 A 
HETATM   30  C   UNK N   1      44.974  52.529  62.032  0.00  0.00     0.017 A 
ENDBRANCH  23  25
ENDBRANCH  22  23
ENDBRANCH  10  22
BRANCH   8  31
HETATM   31  O   UNK N   1      51.127  53.180  60.216  0.00  0.00    -0.307 OA
BRANCH  31  32
HETATM   32  C   UNK N   1      52.021  53.818  61.033  0.00  0.00     0.255 C 
HETATM   33  O   UNK N   1      52.948  54.469  60.568  0.00  0.00    -0.266 OA
HETATM   34  C   UNK N   1      51.851  53.756  62.515  0.00  0.00     0.126 C 
ENDBRANCH  31  32
ENDBRANCH   8  31
BRANCH   7  35
HETATM   35  O   UNK N   1      49.855  54.834  57.222  0.00  0.00    -0.313 OA
BRANCH  35  36
HETATM   36  C   UNK N   1      50.270  56.046  56.763  0.00  0.00     0.255 C 
HETATM   37  O   UNK N   1      49.508  56.784  56.154  0.00  0.00    -0.266 OA
HETATM   38  C   UNK N   1      51.666  56.495  57.046  0.00  0.00     0.126 C 
ENDBRANCH  35  36
ENDBRANCH   7  35
BRANCH  16  39
HETATM   39  O   UNK N   1      48.015  48.947  60.767  0.00  0.00    -0.311 OA
BRANCH  39  40
HETATM   40  C   UNK N   1      46.917  48.668  60.019  0.00  0.00     0.255 C 
HETATM   41  O   UNK N   1      46.975  47.866  59.100  0.00  0.00    -0.266 OA
HETATM   42  C   UNK N   1      45.615  49.323  60.350  0.00  0.00     0.126 C 
ENDBRANCH  39  40
ENDBRANCH  16  39
TORSDOF 9
ENDMDL
MODEL 9
REMARK VINA RESULT:      -4.2     16.985     21.180
REMARK  9 active torsions:
REMARK  status: ('A' for Active; 'I' for Inactive)
REMARK    1  A    between atoms: C_7  and  O_8 
REMARK    2  A    between atoms: O_8  and  C_9 
REMARK    3  A    between atoms: C_12  and  O_13 
REMARK    4  A    between atoms: O_13  and  C_14 
REMARK    5  A    between atoms: C_18  and  O_19 
REMARK    6  A    between atoms: O_19  and  C_20 
REMARK    7  A    between atoms: C_20  and  C_22 
REMARK    8  A    between atoms: C_33  and  O_34 
REMARK    9  A    between atoms: O_34  and  C_35 
ROOT
HETATM    1  O   UNK N   1      49.213  55.467  59.027  0.00  0.00    -0.297 OA
HETATM    2  C   UNK N   1      48.467  56.194  59.669  0.00  0.00     0.141 C 
HETATM    3  C   UNK N   1      47.511  57.152  58.958  0.00  0.00     0.031 C 
HETATM    4  C   UNK N   1      46.103  56.709  59.353  0.00  0.00    -0.014 C 
HETATM    5  C   UNK N   1      45.176  57.466  59.977  0.00  0.00    -0.023 C 
HETATM    6  C   UNK N   1      43.813  56.879  60.292  0.00  0.00     0.036 C 
HETATM    7  C   UNK N   1      43.342  57.075  61.771  0.00  0.00     0.175 C 
HETATM    8  C   UNK N   1      44.369  56.641  62.909  0.00  0.00     0.107 C 
HETATM    9  C   UNK N   1      44.899  55.176  62.769  0.00  0.00     0.076 C 
HETATM   10  C   UNK N   1      43.725  54.357  63.350  0.00  0.00     0.146 C 
HETATM   11  C   UNK N   1      43.349  55.133  64.615  0.00  0.00     0.015 C 
HETATM   12  C   UNK N   1      43.676  56.610  64.307  0.00  0.00     0.049 C 
HETATM   13  C   UNK N   1      41.921  54.878  65.098  0.00  0.00     0.012 C 
HETATM   14  C   UNK N   1      46.199  54.970  63.580  0.00  0.00    -0.011 C 
HETATM   15  C   UNK N   1      47.457  54.766  63.077  0.00  0.00    -0.057 C 
HETATM   16  C   UNK N   1      47.786  54.727  61.583  0.00  0.00     0.167 C 
HETATM   17  C   UNK N   1      48.421  56.067  61.175  0.00  0.00     0.116 C 
HETATM   18  C   UNK N   1      48.617  54.665  64.044  0.00  0.00     0.046 C 
HETATM   19  C   UNK N   1      42.802  57.507  59.322  0.00  0.00     0.017 C 
HETATM   20  C   UNK N   1      47.853  58.608  59.339  0.00  0.00     0.027 C 
HETATM   21  C   UNK N   1      47.626  57.029  57.424  0.00  0.00     0.027 C 
ENDROOT
BRANCH  10  22
HETATM   22  O   UNK N   1      44.020  53.043  63.662  0.00  0.00    -0.311 OA
BRANCH  22  23
HETATM   23  C   UNK N   1      43.525  51.956  63.019  0.00  0.00     0.293 C 
HETATM   24  O   UNK N   1      42.325  51.853  62.812  0.00  0.00    -0.259 OA
BRANCH  23  25
HETATM   25  C   UNK N   1      44.462  50.900  62.562  0.00  0.00     0.039 A 
HETATM   26  C   UNK N   1      45.539  50.492  63.372  0.00  0.00     0.017 A 
HETATM   27  C   UNK N   1      46.402  49.480  62.938  0.00  0.00     0.001 A 
HETATM   28  C   UNK N   1      46.208  48.876  61.694  0.00  0.00     0.000 A 
HETATM   29  C   UNK N   1      45.147  49.280  60.879  0.00  0.00     0.001 A 
HETATM   30  C   UNK N   1      44.276  50.284  61.310  0.00  0.00     0.017 A 
ENDBRANCH  23  25
ENDBRANCH  22  23
ENDBRANCH  10  22
BRANCH   8  31
HETATM   31  O   UNK N   1      45.436  57.545  62.915  0.00  0.00    -0.307 OA
BRANCH  31  32
HETATM   32  C   UNK N   1      45.527  58.664  63.699  0.00  0.00     0.255 C 
HETATM   33  O   UNK N   1      44.821  59.642  63.489  0.00  0.00    -0.266 OA
HETATM   34  C   UNK N   1      46.474  58.690  64.853  0.00  0.00     0.126 C 
ENDBRANCH  31  32
ENDBRANCH   8  31
BRANCH   7  35
HETATM   35  O   UNK N   1      42.113  56.438  61.889  0.00  0.00    -0.313 OA
BRANCH  35  36
HETATM   36  C   UNK N   1      40.961  57.043  62.291  0.00  0.00     0.255 C 
HETATM   37  O   UNK N   1      39.971  56.385  62.576  0.00  0.00    -0.266 OA
HETATM   38  C   UNK N   1      40.926  58.530  62.424  0.00  0.00     0.126 C 
ENDBRANCH  35  36
ENDBRANCH   7  35
BRANCH  16  39
HETATM   39  O   UNK N   1      48.643  53.686  61.266  0.00  0.00    -0.311 OA
BRANCH  39  40
HETATM   40  C   UNK N   1      48.245  52.409  61.034  0.00  0.00     0.255 C 
HETATM   41  O   UNK N   1      47.129  52.173  60.598  0.00  0.00    -0.266 OA
HETATM   42  C   UNK N   1      49.199  51.285  61.278  0.00  0.00     0.126 C 
ENDBRANCH  39  40
ENDBRANCH  16  39
TORSDOF 9
ENDMDL
