MODEL 1
REMARK VINA RESULT:      -7.8      0.000      0.000
REMARK  12 active torsions:
REMARK  status: ('A' for Active; 'I' for Inactive)
REMARK       I    between atoms: C_2  and  N_3 
REMARK    1  A    between atoms: C_2  and  C_18 
REMARK    2  A    between atoms: N_3  and  C_4 
REMARK    3  A    between atoms: C_4  and  C_5 
REMARK    4  A    between atoms: C_4  and  C_8 
REMARK    5  A    between atoms: C_5  and  O_6 
REMARK    6  A    between atoms: C_8  and  C_9 
REMARK    7  A    between atoms: C_12  and  O_13 
REMARK    8  A    between atoms: C_19  and  C_20 
REMARK    9  A    between atoms: C_21  and  C_22 
REMARK   10  A    between atoms: C_22  and  C_23 
REMARK   11  A    between atoms: C_23  and  C_24 
REMARK   12  A    between atoms: C_24  and  O_26 
ROOT
HETATM    1  O   UNK N   1      38.973  45.166  46.132  0.00  0.00    -0.269 OA
HETATM    2  C   UNK N   1      39.145  45.587  47.265  0.00  0.00     0.241 C 
HETATM    3  N   UNK N   1      39.759  46.785  47.484  0.00  0.00    -0.351 N 
HETATM    4  H   UNK N   1      39.850  47.117  48.455  0.00  0.00     0.163 HD
ENDROOT
BRANCH   3   5
HETATM    5  C   UNK N   1      40.275  47.632  46.414  0.00  0.00     0.112 C 
BRANCH   5   6
HETATM    6  C   UNK N   1      41.612  47.063  45.908  0.00  0.00     0.189 C 
BRANCH   6   7
HETATM    7  O   UNK N   1      41.397  46.085  44.926  0.00  0.00    -0.399 OA
HETATM    8  H   UNK N   1      40.653  45.511  45.248  0.00  0.00     0.209 HD
ENDBRANCH   6   7
ENDBRANCH   5   6
BRANCH   5   9
HETATM    9  C   UNK N   1      39.237  47.755  45.270  0.00  0.00     0.065 C 
BRANCH   9  10
HETATM   10  C   UNK N   1      39.402  48.998  44.422  0.00  0.00    -0.056 A 
HETATM   11  C   UNK N   1      40.204  50.065  44.864  0.00  0.00     0.010 A 
HETATM   12  C   UNK N   1      40.342  51.215  44.087  0.00  0.00     0.037 A 
HETATM   13  C   UNK N   1      39.684  51.317  42.858  0.00  0.00     0.065 A 
HETATM   14  C   UNK N   1      38.889  50.253  42.406  0.00  0.00     0.037 A 
HETATM   15  C   UNK N   1      38.751  49.098  43.182  0.00  0.00     0.010 A 
BRANCH  13  16
HETATM   16  O   UNK N   1      39.820  52.437  42.121  0.00  0.00    -0.361 OA
HETATM   17  H   UNK N   1      40.674  52.878  42.019  0.00  0.00     0.217 HD
ENDBRANCH  13  16
ENDBRANCH   9  10
ENDBRANCH   5   9
ENDBRANCH   3   5
BRANCH   2  18
HETATM   18  C   UNK N   1      38.645  44.808  48.416  0.00  0.00     0.074 C 
HETATM   19  C   UNK N   1      39.410  44.093  49.276  0.00  0.00     0.012 C 
BRANCH  19  20
HETATM   20  C   UNK N   1      40.907  43.897  49.214  0.00  0.00    -0.065 C 
HETATM   21  C   UNK N   1      41.702  44.082  50.302  0.00  0.00    -0.015 C 
HETATM   22  C   UNK N   1      41.584  43.454  47.937  0.00  0.00     0.048 C 
BRANCH  21  23
HETATM   23  C   UNK N   1      41.250  44.509  51.689  0.00  0.00     0.014 C 
HETATM   24  C   UNK N   1      42.241  45.542  52.251  0.00  0.00     0.015 C 
BRANCH  23  25
HETATM   25  C   UNK N   1      41.121  43.293  52.631  0.00  0.00     0.118 C 
BRANCH  25  26
HETATM   26  C   UNK N   1      39.836  43.291  53.427  0.00  0.00     0.140 C 
HETATM   27  O   UNK N   1      39.522  44.271  54.082  0.00  0.00    -0.650 OA
BRANCH  26  28
HETATM   28  O   UNK N   1      39.022  42.215  53.407  0.00  0.00    -0.776 OA
HETATM   29  H   UNK N   1      39.300  41.382  52.998  0.00  0.00     0.167 HD
ENDBRANCH  26  28
ENDBRANCH  25  26
ENDBRANCH  23  25
ENDBRANCH  21  23
ENDBRANCH  19  20
ENDBRANCH   2  18
TORSDOF 12
ENDMDL
MODEL 2
REMARK VINA RESULT:      -7.6      1.866      8.730
REMARK  12 active torsions:
REMARK  status: ('A' for Active; 'I' for Inactive)
REMARK       I    between atoms: C_2  and  N_3 
REMARK    1  A    between atoms: C_2  and  C_18 
REMARK    2  A    between atoms: N_3  and  C_4 
REMARK    3  A    between atoms: C_4  and  C_5 
REMARK    4  A    between atoms: C_4  and  C_8 
REMARK    5  A    between atoms: C_5  and  O_6 
REMARK    6  A    between atoms: C_8  and  C_9 
REMARK    7  A    between atoms: C_12  and  O_13 
REMARK    8  A    between atoms: C_19  and  C_20 
REMARK    9  A    between atoms: C_21  and  C_22 
REMARK   10  A    between atoms: C_22  and  C_23 
REMARK   11  A    between atoms: C_23  and  C_24 
REMARK   12  A    between atoms: C_24  and  O_26 
ROOT
HETATM    1  O   UNK N   1      41.329  45.597  44.919  0.00  0.00    -0.269 OA
HETATM    2  C   UNK N   1      41.518  46.291  45.906  0.00  0.00     0.241 C 
HETATM    3  N   UNK N   1      41.246  45.823  47.158  0.00  0.00    -0.351 N 
HETATM    4  H   UNK N   1      41.456  46.431  47.963  0.00  0.00     0.163 HD
ENDROOT
BRANCH   3   5
HETATM    5  C   UNK N   1      40.694  44.497  47.418  0.00  0.00     0.112 C 
BRANCH   5   6
HETATM    6  C   UNK N   1      41.842  43.507  47.685  0.00  0.00     0.189 C 
BRANCH   6   7
HETATM    7  O   UNK N   1      42.578  43.272  46.515  0.00  0.00    -0.399 OA
HETATM    8  H   UNK N   1      41.962  42.839  45.868  0.00  0.00     0.209 HD
ENDBRANCH   6   7
ENDBRANCH   5   6
BRANCH   5   9
HETATM    9  C   UNK N   1      39.696  44.547  48.602  0.00  0.00     0.065 C 
BRANCH   9  10
HETATM   10  C   UNK N   1      40.358  44.531  49.964  0.00  0.00    -0.056 A 
HETATM   11  C   UNK N   1      40.028  43.542  50.908  0.00  0.00     0.010 A 
HETATM   12  C   UNK N   1      40.629  43.539  52.167  0.00  0.00     0.037 A 
HETATM   13  C   UNK N   1      41.568  44.518  52.501  0.00  0.00     0.065 A 
HETATM   14  C   UNK N   1      41.909  45.503  51.561  0.00  0.00     0.037 A 
HETATM   15  C   UNK N   1      41.310  45.507  50.298  0.00  0.00     0.010 A 
BRANCH  13  16
HETATM   16  O   UNK N   1      42.135  44.508  53.724  0.00  0.00    -0.361 OA
HETATM   17  H   UNK N   1      42.536  43.708  54.091  0.00  0.00     0.217 HD
ENDBRANCH  13  16
ENDBRANCH   9  10
ENDBRANCH   5   9
ENDBRANCH   3   5
BRANCH   2  18
HETATM   18  C   UNK N   1      42.089  47.644  45.747  0.00  0.00     0.074 C 
HETATM   19  C   UNK N   1      41.382  48.800  45.720  0.00  0.00     0.012 C 
BRANCH  19  20
HETATM   20  C   UNK N   1      39.881  48.949  45.794  0.00  0.00    -0.065 C 
HETATM   21  C   UNK N   1      39.156  49.446  44.756  0.00  0.00    -0.015 C 
HETATM   22  C   UNK N   1      39.112  48.518  47.022  0.00  0.00     0.048 C 
BRANCH  21  23
HETATM   23  C   UNK N   1      39.702  49.926  43.421  0.00  0.00     0.014 C 
HETATM   24  C   UNK N   1      40.046  51.422  43.522  0.00  0.00     0.015 C 
BRANCH  23  25
HETATM   25  C   UNK N   1      38.696  49.663  42.280  0.00  0.00     0.118 C 
BRANCH  25  26
HETATM   26  C   UNK N   1      37.322  49.275  42.775  0.00  0.00     0.140 C 
HETATM   27  O   UNK N   1      36.504  50.139  43.045  0.00  0.00    -0.650 OA
BRANCH  26  28
HETATM   28  O   UNK N   1      36.985  47.975  42.907  0.00  0.00    -0.776 OA
HETATM   29  H   UNK N   1      36.751  47.602  43.770  0.00  0.00     0.167 HD
ENDBRANCH  26  28
ENDBRANCH  25  26
ENDBRANCH  23  25
ENDBRANCH  21  23
ENDBRANCH  19  20
ENDBRANCH   2  18
TORSDOF 12
ENDMDL
MODEL 3
REMARK VINA RESULT:      -7.4      2.026      9.002
REMARK  12 active torsions:
REMARK  status: ('A' for Active; 'I' for Inactive)
REMARK       I    between atoms: C_2  and  N_3 
REMARK    1  A    between atoms: C_2  and  C_18 
REMARK    2  A    between atoms: N_3  and  C_4 
REMARK    3  A    between atoms: C_4  and  C_5 
REMARK    4  A    between atoms: C_4  and  C_8 
REMARK    5  A    between atoms: C_5  and  O_6 
REMARK    6  A    between atoms: C_8  and  C_9 
REMARK    7  A    between atoms: C_12  and  O_13 
REMARK    8  A    between atoms: C_19  and  C_20 
REMARK    9  A    between atoms: C_21  and  C_22 
REMARK   10  A    between atoms: C_22  and  C_23 
REMARK   11  A    between atoms: C_23  and  C_24 
REMARK   12  A    between atoms: C_24  and  O_26 
ROOT
HETATM    1  O   UNK N   1      41.582  48.034  48.073  0.00  0.00    -0.269 OA
HETATM    2  C   UNK N   1      41.315  47.623  46.955  0.00  0.00     0.241 C 
HETATM    3  N   UNK N   1      40.578  46.489  46.780  0.00  0.00    -0.351 N 
HETATM    4  H   UNK N   1      40.347  46.200  45.818  0.00  0.00     0.163 HD
ENDROOT
BRANCH   3   5
HETATM    5  C   UNK N   1      40.079  45.675  47.884  0.00  0.00     0.112 C 
BRANCH   5   6
HETATM    6  C   UNK N   1      38.785  44.962  47.452  0.00  0.00     0.189 C 
BRANCH   6   7
HETATM    7  O   UNK N   1      38.064  44.520  48.570  0.00  0.00    -0.399 OA
HETATM    8  H   UNK N   1      37.870  45.320  49.125  0.00  0.00     0.209 HD
ENDBRANCH   6   7
ENDBRANCH   5   6
BRANCH   5   9
HETATM    9  C   UNK N   1      41.160  44.667  48.348  0.00  0.00     0.065 C 
BRANCH   9  10
HETATM   10  C   UNK N   1      41.318  44.585  49.851  0.00  0.00    -0.056 A 
HETATM   11  C   UNK N   1      42.012  45.586  50.554  0.00  0.00     0.010 A 
HETATM   12  C   UNK N   1      42.167  45.500  51.938  0.00  0.00     0.037 A 
HETATM   13  C   UNK N   1      41.633  44.416  52.640  0.00  0.00     0.065 A 
HETATM   14  C   UNK N   1      40.931  43.418  51.947  0.00  0.00     0.037 A 
HETATM   15  C   UNK N   1      40.771  43.503  50.561  0.00  0.00     0.010 A 
BRANCH  13  16
HETATM   16  O   UNK N   1      41.798  44.342  53.976  0.00  0.00    -0.361 OA
HETATM   17  H   UNK N   1      41.137  44.691  54.589  0.00  0.00     0.217 HD
ENDBRANCH  13  16
ENDBRANCH   9  10
ENDBRANCH   5   9
ENDBRANCH   3   5
BRANCH   2  18
HETATM   18  C   UNK N   1      41.763  48.385  45.772  0.00  0.00     0.074 C 
HETATM   19  C   UNK N   1      41.013  49.273  45.074  0.00  0.00     0.012 C 
BRANCH  19  20
HETATM   20  C   UNK N   1      39.566  49.629  45.320  0.00  0.00    -0.065 C 
HETATM   21  C   UNK N   1      38.710  49.905  44.300  0.00  0.00    -0.015 C 
HETATM   22  C   UNK N   1      38.998  49.664  46.720  0.00  0.00     0.048 C 
BRANCH  21  23
HETATM   23  C   UNK N   1      39.046  49.915  42.818  0.00  0.00     0.014 C 
HETATM   24  C   UNK N   1      39.731  51.245  42.462  0.00  0.00     0.015 C 
BRANCH  23  25
HETATM   25  C   UNK N   1      37.783  49.694  41.958  0.00  0.00     0.118 C 
BRANCH  25  26
HETATM   26  C   UNK N   1      36.670  48.995  42.705  0.00  0.00     0.140 C 
HETATM   27  O   UNK N   1      35.733  49.639  43.146  0.00  0.00    -0.650 OA
BRANCH  26  28
HETATM   28  O   UNK N   1      36.696  47.656  42.874  0.00  0.00    -0.776 OA
HETATM   29  H   UNK N   1      35.974  47.096  42.554  0.00  0.00     0.167 HD
ENDBRANCH  26  28
ENDBRANCH  25  26
ENDBRANCH  23  25
ENDBRANCH  21  23
ENDBRANCH  19  20
ENDBRANCH   2  18
TORSDOF 12
ENDMDL
MODEL 4
REMARK VINA RESULT:      -7.4      2.582      8.973
REMARK  12 active torsions:
REMARK  status: ('A' for Active; 'I' for Inactive)
REMARK       I    between atoms: C_2  and  N_3 
REMARK    1  A    between atoms: C_2  and  C_18 
REMARK    2  A    between atoms: N_3  and  C_4 
REMARK    3  A    between atoms: C_4  and  C_5 
REMARK    4  A    between atoms: C_4  and  C_8 
REMARK    5  A    between atoms: C_5  and  O_6 
REMARK    6  A    between atoms: C_8  and  C_9 
REMARK    7  A    between atoms: C_12  and  O_13 
REMARK    8  A    between atoms: C_19  and  C_20 
REMARK    9  A    between atoms: C_21  and  C_22 
REMARK   10  A    between atoms: C_22  and  C_23 
REMARK   11  A    between atoms: C_23  and  C_24 
REMARK   12  A    between atoms: C_24  and  O_26 
ROOT
HETATM    1  O   UNK N   1      39.044  47.435  45.760  0.00  0.00    -0.269 OA
HETATM    2  C   UNK N   1      39.478  48.273  46.536  0.00  0.00     0.241 C 
HETATM    3  N   UNK N   1      40.583  48.023  47.296  0.00  0.00    -0.351 N 
HETATM    4  H   UNK N   1      40.934  48.773  47.908  0.00  0.00     0.163 HD
ENDROOT
BRANCH   3   5
HETATM    5  C   UNK N   1      41.306  46.755  47.270  0.00  0.00     0.112 C 
BRANCH   5   6
HETATM    6  C   UNK N   1      42.111  46.651  45.962  0.00  0.00     0.189 C 
BRANCH   6   7
HETATM    7  O   UNK N   1      41.426  45.872  45.018  0.00  0.00    -0.399 OA
HETATM    8  H   UNK N   1      40.895  46.496  44.458  0.00  0.00     0.209 HD
ENDBRANCH   6   7
ENDBRANCH   5   6
BRANCH   5   9
HETATM    9  C   UNK N   1      42.219  46.626  48.514  0.00  0.00     0.065 C 
BRANCH   9  10
HETATM   10  C   UNK N   1      41.660  45.725  49.595  0.00  0.00    -0.056 A 
HETATM   11  C   UNK N   1      40.564  44.885  49.330  0.00  0.00     0.010 A 
HETATM   12  C   UNK N   1      40.042  44.067  50.333  0.00  0.00     0.037 A 
HETATM   13  C   UNK N   1      40.606  44.073  51.611  0.00  0.00     0.065 A 
HETATM   14  C   UNK N   1      41.706  44.902  51.880  0.00  0.00     0.037 A 
HETATM   15  C   UNK N   1      42.233  45.721  50.877  0.00  0.00     0.010 A 
BRANCH  13  16
HETATM   16  O   UNK N   1      40.087  43.284  52.572  0.00  0.00    -0.361 OA
HETATM   17  H   UNK N   1      39.183  42.945  52.519  0.00  0.00     0.217 HD
ENDBRANCH  13  16
ENDBRANCH   9  10
ENDBRANCH   5   9
ENDBRANCH   3   5
BRANCH   2  18
HETATM   18  C   UNK N   1      38.823  49.594  46.624  0.00  0.00     0.074 C 
HETATM   19  C   UNK N   1      38.630  50.450  45.590  0.00  0.00     0.012 C 
BRANCH  19  20
HETATM   20  C   UNK N   1      39.081  50.263  44.161  0.00  0.00    -0.065 C 
HETATM   21  C   UNK N   1      38.249  49.777  43.202  0.00  0.00    -0.015 C 
HETATM   22  C   UNK N   1      40.479  50.643  43.728  0.00  0.00     0.048 C 
BRANCH  21  23
HETATM   23  C   UNK N   1      36.804  49.347  43.393  0.00  0.00     0.014 C 
HETATM   24  C   UNK N   1      36.559  48.038  42.624  0.00  0.00     0.015 C 
BRANCH  23  25
HETATM   25  C   UNK N   1      35.828  50.451  42.937  0.00  0.00     0.118 C 
BRANCH  25  26
HETATM   26  C   UNK N   1      34.535  50.464  43.720  0.00  0.00     0.140 C 
HETATM   27  O   UNK N   1      33.595  49.777  43.356  0.00  0.00    -0.650 OA
BRANCH  26  28
HETATM   28  O   UNK N   1      34.417  51.219  44.832  0.00  0.00    -0.776 OA
HETATM   29  H   UNK N   1      33.694  51.078  45.460  0.00  0.00     0.167 HD
ENDBRANCH  26  28
ENDBRANCH  25  26
ENDBRANCH  23  25
ENDBRANCH  21  23
ENDBRANCH  19  20
ENDBRANCH   2  18
TORSDOF 12
ENDMDL
MODEL 5
REMARK VINA RESULT:      -7.1      2.836      4.028
REMARK  12 active torsions:
REMARK  status: ('A' for Active; 'I' for Inactive)
REMARK       I    between atoms: C_2  and  N_3 
REMARK    1  A    between atoms: C_2  and  C_18 
REMARK    2  A    between atoms: N_3  and  C_4 
REMARK    3  A    between atoms: C_4  and  C_5 
REMARK    4  A    between atoms: C_4  and  C_8 
REMARK    5  A    between atoms: C_5  and  O_6 
REMARK    6  A    between atoms: C_8  and  C_9 
REMARK    7  A    between atoms: C_12  and  O_13 
REMARK    8  A    between atoms: C_19  and  C_20 
REMARK    9  A    between atoms: C_21  and  C_22 
REMARK   10  A    between atoms: C_22  and  C_23 
REMARK   11  A    between atoms: C_23  and  C_24 
REMARK   12  A    between atoms: C_24  and  O_26 
ROOT
HETATM    1  O   UNK N   1      39.433  47.750  46.701  0.00  0.00    -0.269 OA
HETATM    2  C   UNK N   1      40.021  47.365  45.702  0.00  0.00     0.241 C 
HETATM    3  N   UNK N   1      39.924  48.043  44.523  0.00  0.00    -0.351 N 
HETATM    4  H   UNK N   1      40.467  47.701  43.717  0.00  0.00     0.163 HD
ENDROOT
BRANCH   3   5
HETATM    5  C   UNK N   1      39.108  49.241  44.349  0.00  0.00     0.112 C 
BRANCH   5   6
HETATM    6  C   UNK N   1      39.989  50.491  44.526  0.00  0.00     0.189 C 
BRANCH   6   7
HETATM    7  O   UNK N   1      40.089  51.203  43.322  0.00  0.00    -0.399 OA
HETATM    8  H   UNK N   1      39.276  51.768  43.251  0.00  0.00     0.209 HD
ENDBRANCH   6   7
ENDBRANCH   5   6
BRANCH   5   9
HETATM    9  C   UNK N   1      38.409  49.226  42.967  0.00  0.00     0.065 C 
BRANCH   9  10
HETATM   10  C   UNK N   1      36.897  49.187  43.045  0.00  0.00    -0.056 A 
HETATM   11  C   UNK N   1      36.159  50.369  43.232  0.00  0.00     0.010 A 
HETATM   12  C   UNK N   1      34.766  50.327  43.317  0.00  0.00     0.037 A 
HETATM   13  C   UNK N   1      34.092  49.107  43.217  0.00  0.00     0.065 A 
HETATM   14  C   UNK N   1      34.821  47.925  43.022  0.00  0.00     0.037 A 
HETATM   15  C   UNK N   1      36.216  47.964  42.933  0.00  0.00     0.010 A 
BRANCH  13  16
HETATM   16  O   UNK N   1      32.748  49.081  43.309  0.00  0.00    -0.361 OA
HETATM   17  H   UNK N   1      32.232  49.885  43.454  0.00  0.00     0.217 HD
ENDBRANCH  13  16
ENDBRANCH   9  10
ENDBRANCH   5   9
ENDBRANCH   3   5
BRANCH   2  18
HETATM   18  C   UNK N   1      40.884  46.169  45.780  0.00  0.00     0.074 C 
HETATM   19  C   UNK N   1      41.898  45.983  46.660  0.00  0.00     0.012 C 
BRANCH  19  20
HETATM   20  C   UNK N   1      42.390  46.963  47.699  0.00  0.00    -0.065 C 
HETATM   21  C   UNK N   1      42.266  46.722  49.031  0.00  0.00    -0.015 C 
HETATM   22  C   UNK N   1      43.073  48.250  47.296  0.00  0.00     0.048 C 
BRANCH  21  23
HETATM   23  C   UNK N   1      41.634  45.497  49.672  0.00  0.00     0.014 C 
HETATM   24  C   UNK N   1      40.116  45.520  49.422  0.00  0.00     0.015 C 
BRANCH  23  25
HETATM   25  C   UNK N   1      41.947  45.433  51.182  0.00  0.00     0.118 C 
BRANCH  25  26
HETATM   26  C   UNK N   1      41.382  44.204  51.855  0.00  0.00     0.140 C 
HETATM   27  O   UNK N   1      41.648  43.094  51.423  0.00  0.00    -0.650 OA
BRANCH  26  28
HETATM   28  O   UNK N   1      40.595  44.322  52.945  0.00  0.00    -0.776 OA
HETATM   29  H   UNK N   1      40.923  44.728  53.760  0.00  0.00     0.167 HD
ENDBRANCH  26  28
ENDBRANCH  25  26
ENDBRANCH  23  25
ENDBRANCH  21  23
ENDBRANCH  19  20
ENDBRANCH   2  18
TORSDOF 12
ENDMDL
MODEL 6
REMARK VINA RESULT:      -7.0      3.447      8.586
REMARK  12 active torsions:
REMARK  status: ('A' for Active; 'I' for Inactive)
REMARK       I    between atoms: C_2  and  N_3 
REMARK    1  A    between atoms: C_2  and  C_18 
REMARK    2  A    between atoms: N_3  and  C_4 
REMARK    3  A    between atoms: C_4  and  C_5 
REMARK    4  A    between atoms: C_4  and  C_8 
REMARK    5  A    between atoms: C_5  and  O_6 
REMARK    6  A    between atoms: C_8  and  C_9 
REMARK    7  A    between atoms: C_12  and  O_13 
REMARK    8  A    between atoms: C_19  and  C_20 
REMARK    9  A    between atoms: C_21  and  C_22 
REMARK   10  A    between atoms: C_22  and  C_23 
REMARK   11  A    between atoms: C_23  and  C_24 
REMARK   12  A    between atoms: C_24  and  O_26 
ROOT
HETATM    1  O   UNK N   1      39.898  47.831  45.189  0.00  0.00    -0.269 OA
HETATM    2  C   UNK N   1      39.906  48.449  46.243  0.00  0.00     0.241 C 
HETATM    3  N   UNK N   1      40.775  48.125  47.242  0.00  0.00    -0.351 N 
HETATM    4  H   UNK N   1      40.770  48.698  48.098  0.00  0.00     0.163 HD
ENDROOT
BRANCH   3   5
HETATM    5  C   UNK N   1      41.728  47.023  47.153  0.00  0.00     0.112 C 
BRANCH   5   6
HETATM    6  C   UNK N   1      42.822  47.203  48.221  0.00  0.00     0.189 C 
BRANCH   6   7
HETATM    7  O   UNK N   1      42.670  46.266  49.252  0.00  0.00    -0.399 OA
HETATM    8  H   UNK N   1      41.738  46.348  49.584  0.00  0.00     0.209 HD
ENDBRANCH   6   7
ENDBRANCH   5   6
BRANCH   5   9
HETATM    9  C   UNK N   1      41.001  45.663  47.304  0.00  0.00     0.065 C 
BRANCH   9  10
HETATM   10  C   UNK N   1      41.630  44.540  46.508  0.00  0.00    -0.056 A 
HETATM   11  C   UNK N   1      41.964  43.323  47.128  0.00  0.00     0.010 A 
HETATM   12  C   UNK N   1      42.557  42.294  46.394  0.00  0.00     0.037 A 
HETATM   13  C   UNK N   1      42.822  42.465  45.033  0.00  0.00     0.065 A 
HETATM   14  C   UNK N   1      42.483  43.673  44.405  0.00  0.00     0.037 A 
HETATM   15  C   UNK N   1      41.887  44.704  45.137  0.00  0.00     0.010 A 
BRANCH  13  16
HETATM   16  O   UNK N   1      43.402  41.466  44.337  0.00  0.00    -0.361 OA
HETATM   17  H   UNK N   1      44.323  41.515  44.050  0.00  0.00     0.217 HD
ENDBRANCH  13  16
ENDBRANCH   9  10
ENDBRANCH   5   9
ENDBRANCH   3   5
BRANCH   2  18
HETATM   18  C   UNK N   1      38.988  49.592  46.424  0.00  0.00     0.074 C 
HETATM   19  C   UNK N   1      38.547  50.414  45.440  0.00  0.00     0.012 C 
BRANCH  19  20
HETATM   20  C   UNK N   1      38.934  50.372  43.980  0.00  0.00    -0.065 C 
HETATM   21  C   UNK N   1      38.087  49.901  43.026  0.00  0.00    -0.015 C 
HETATM   22  C   UNK N   1      40.276  50.885  43.513  0.00  0.00     0.048 C 
BRANCH  21  23
HETATM   23  C   UNK N   1      36.688  49.351  43.252  0.00  0.00     0.014 C 
HETATM   24  C   UNK N   1      36.550  48.002  42.526  0.00  0.00     0.015 C 
BRANCH  23  25
HETATM   25  C   UNK N   1      35.613  50.350  42.775  0.00  0.00     0.118 C 
BRANCH  25  26
HETATM   26  C   UNK N   1      34.374  50.348  43.639  0.00  0.00     0.140 C 
HETATM   27  O   UNK N   1      34.158  51.279  44.398  0.00  0.00    -0.650 OA
BRANCH  26  28
HETATM   28  O   UNK N   1      33.491  49.330  43.567  0.00  0.00    -0.776 OA
HETATM   29  H   UNK N   1      33.628  48.589  42.959  0.00  0.00     0.167 HD
ENDBRANCH  26  28
ENDBRANCH  25  26
ENDBRANCH  23  25
ENDBRANCH  21  23
ENDBRANCH  19  20
ENDBRANCH   2  18
TORSDOF 12
ENDMDL
MODEL 7
REMARK VINA RESULT:      -6.7      9.951     14.032
REMARK  12 active torsions:
REMARK  status: ('A' for Active; 'I' for Inactive)
REMARK       I    between atoms: C_2  and  N_3 
REMARK    1  A    between atoms: C_2  and  C_18 
REMARK    2  A    between atoms: N_3  and  C_4 
REMARK    3  A    between atoms: C_4  and  C_5 
REMARK    4  A    between atoms: C_4  and  C_8 
REMARK    5  A    between atoms: C_5  and  O_6 
REMARK    6  A    between atoms: C_8  and  C_9 
REMARK    7  A    between atoms: C_12  and  O_13 
REMARK    8  A    between atoms: C_19  and  C_20 
REMARK    9  A    between atoms: C_21  and  C_22 
REMARK   10  A    between atoms: C_22  and  C_23 
REMARK   11  A    between atoms: C_23  and  C_24 
REMARK   12  A    between atoms: C_24  and  O_26 
ROOT
HETATM    1  O   UNK N   1      30.347  50.270  40.813  0.00  0.00    -0.269 OA
HETATM    2  C   UNK N   1      31.154  51.159  41.037  0.00  0.00     0.241 C 
HETATM    3  N   UNK N   1      31.963  51.116  42.133  0.00  0.00    -0.351 N 
HETATM    4  H   UNK N   1      32.653  51.869  42.261  0.00  0.00     0.163 HD
ENDROOT
BRANCH   3   5
HETATM    5  C   UNK N   1      31.918  50.044  43.124  0.00  0.00     0.112 C 
BRANCH   5   6
HETATM    6  C   UNK N   1      32.929  48.949  42.741  0.00  0.00     0.189 C 
BRANCH   6   7
HETATM    7  O   UNK N   1      34.150  49.147  43.401  0.00  0.00    -0.399 OA
HETATM    8  H   UNK N   1      34.868  49.013  42.729  0.00  0.00     0.209 HD
ENDBRANCH   6   7
ENDBRANCH   5   6
BRANCH   5   9
HETATM    9  C   UNK N   1      32.191  50.603  44.542  0.00  0.00     0.065 C 
BRANCH   9  10
HETATM   10  C   UNK N   1      32.468  52.092  44.572  0.00  0.00    -0.056 A 
HETATM   11  C   UNK N   1      31.428  53.009  44.807  0.00  0.00     0.010 A 
HETATM   12  C   UNK N   1      31.685  54.380  44.820  0.00  0.00     0.037 A 
HETATM   13  C   UNK N   1      32.980  54.856  44.600  0.00  0.00     0.065 A 
HETATM   14  C   UNK N   1      34.024  53.946  44.373  0.00  0.00     0.037 A 
HETATM   15  C   UNK N   1      33.771  52.572  44.363  0.00  0.00     0.010 A 
BRANCH  13  16
HETATM   16  O   UNK N   1      33.212  56.184  44.608  0.00  0.00    -0.361 OA
HETATM   17  H   UNK N   1      33.403  56.661  45.426  0.00  0.00     0.217 HD
ENDBRANCH  13  16
ENDBRANCH   9  10
ENDBRANCH   5   9
ENDBRANCH   3   5
BRANCH   2  18
HETATM   18  C   UNK N   1      31.285  52.281  40.084  0.00  0.00     0.074 C 
HETATM   19  C   UNK N   1      30.448  53.343  39.996  0.00  0.00     0.012 C 
BRANCH  19  20
HETATM   20  C   UNK N   1      29.192  53.579  40.801  0.00  0.00    -0.065 C 
HETATM   21  C   UNK N   1      28.005  53.005  40.469  0.00  0.00    -0.015 C 
HETATM   22  C   UNK N   1      29.210  54.446  42.040  0.00  0.00     0.048 C 
BRANCH  21  23
HETATM   23  C   UNK N   1      27.747  52.087  39.285  0.00  0.00     0.014 C 
HETATM   24  C   UNK N   1      27.566  52.936  38.015  0.00  0.00     0.015 C 
BRANCH  23  25
HETATM   25  C   UNK N   1      26.516  51.190  39.533  0.00  0.00     0.118 C 
BRANCH  25  26
HETATM   26  C   UNK N   1      26.643  50.335  40.772  0.00  0.00     0.140 C 
HETATM   27  O   UNK N   1      25.882  50.503  41.711  0.00  0.00    -0.650 OA
BRANCH  26  28
HETATM   28  O   UNK N   1      27.585  49.371  40.844  0.00  0.00    -0.776 OA
HETATM   29  H   UNK N   1      27.625  48.763  41.597  0.00  0.00     0.167 HD
ENDBRANCH  26  28
ENDBRANCH  25  26
ENDBRANCH  23  25
ENDBRANCH  21  23
ENDBRANCH  19  20
ENDBRANCH   2  18
TORSDOF 12
ENDMDL
MODEL 8
REMARK VINA RESULT:      -6.7      3.945      9.105
REMARK  12 active torsions:
REMARK  status: ('A' for Active; 'I' for Inactive)
REMARK       I    between atoms: C_2  and  N_3 
REMARK    1  A    between atoms: C_2  and  C_18 
REMARK    2  A    between atoms: N_3  and  C_4 
REMARK    3  A    between atoms: C_4  and  C_5 
REMARK    4  A    between atoms: C_4  and  C_8 
REMARK    5  A    between atoms: C_5  and  O_6 
REMARK    6  A    between atoms: C_8  and  C_9 
REMARK    7  A    between atoms: C_12  and  O_13 
REMARK    8  A    between atoms: C_19  and  C_20 
REMARK    9  A    between atoms: C_21  and  C_22 
REMARK   10  A    between atoms: C_22  and  C_23 
REMARK   11  A    between atoms: C_23  and  C_24 
REMARK   12  A    between atoms: C_24  and  O_26 
ROOT
HETATM    1  O   UNK N   1      38.439  50.218  45.582  0.00  0.00    -0.269 OA
HETATM    2  C   UNK N   1      38.704  49.517  44.618  0.00  0.00     0.241 C 
HETATM    3  N   UNK N   1      39.215  48.263  44.778  0.00  0.00    -0.351 N 
HETATM    4  H   UNK N   1      39.389  47.695  43.936  0.00  0.00     0.163 HD
ENDROOT
BRANCH   3   5
HETATM    5  C   UNK N   1      39.508  47.675  46.082  0.00  0.00     0.112 C 
BRANCH   5   6
HETATM    6  C   UNK N   1      38.505  46.544  46.371  0.00  0.00     0.189 C 
BRANCH   6   7
HETATM    7  O   UNK N   1      38.918  45.347  45.768  0.00  0.00    -0.399 OA
HETATM    8  H   UNK N   1      39.775  45.537  45.304  0.00  0.00     0.209 HD
ENDBRANCH   6   7
ENDBRANCH   5   6
BRANCH   5   9
HETATM    9  C   UNK N   1      40.971  47.168  46.132  0.00  0.00     0.065 C 
BRANCH   9  10
HETATM   10  C   UNK N   1      41.451  46.817  47.525  0.00  0.00    -0.056 A 
HETATM   11  C   UNK N   1      41.150  45.565  48.091  0.00  0.00     0.010 A 
HETATM   12  C   UNK N   1      41.582  45.251  49.380  0.00  0.00     0.037 A 
HETATM   13  C   UNK N   1      42.320  46.178  50.121  0.00  0.00     0.065 A 
HETATM   14  C   UNK N   1      42.631  47.425  49.559  0.00  0.00     0.037 A 
HETATM   15  C   UNK N   1      42.203  47.742  48.267  0.00  0.00     0.010 A 
BRANCH  13  16
HETATM   16  O   UNK N   1      42.724  45.863  51.368  0.00  0.00    -0.361 OA
HETATM   17  H   UNK N   1      42.262  46.193  52.150  0.00  0.00     0.217 HD
ENDBRANCH  13  16
ENDBRANCH   9  10
ENDBRANCH   5   9
ENDBRANCH   3   5
BRANCH   2  18
HETATM   18  C   UNK N   1      38.429  50.018  43.255  0.00  0.00     0.074 C 
HETATM   19  C   UNK N   1      37.318  49.752  42.526  0.00  0.00     0.012 C 
BRANCH  19  20
HETATM   20  C   UNK N   1      36.165  48.859  42.920  0.00  0.00    -0.065 C 
HETATM   21  C   UNK N   1      34.965  49.365  43.310  0.00  0.00    -0.015 C 
HETATM   22  C   UNK N   1      36.289  47.353  42.865  0.00  0.00     0.048 C 
BRANCH  21  23
HETATM   23  C   UNK N   1      34.599  50.836  43.425  0.00  0.00     0.014 C 
HETATM   24  C   UNK N   1      34.796  51.295  44.880  0.00  0.00     0.015 C 
BRANCH  23  25
HETATM   25  C   UNK N   1      33.152  51.089  42.954  0.00  0.00     0.118 C 
BRANCH  25  26
HETATM   26  C   UNK N   1      32.220  49.936  43.245  0.00  0.00     0.140 C 
HETATM   27  O   UNK N   1      31.826  49.743  44.384  0.00  0.00    -0.650 OA
BRANCH  26  28
HETATM   28  O   UNK N   1      31.806  49.124  42.250  0.00  0.00    -0.776 OA
HETATM   29  H   UNK N   1      30.924  48.725  42.262  0.00  0.00     0.167 HD
ENDBRANCH  26  28
ENDBRANCH  25  26
ENDBRANCH  23  25
ENDBRANCH  21  23
ENDBRANCH  19  20
ENDBRANCH   2  18
TORSDOF 12
ENDMDL
MODEL 9
REMARK VINA RESULT:      -6.6      4.304      5.965
REMARK  12 active torsions:
REMARK  status: ('A' for Active; 'I' for Inactive)
REMARK       I    between atoms: C_2  and  N_3 
REMARK    1  A    between atoms: C_2  and  C_18 
REMARK    2  A    between atoms: N_3  and  C_4 
REMARK    3  A    between atoms: C_4  and  C_5 
REMARK    4  A    between atoms: C_4  and  C_8 
REMARK    5  A    between atoms: C_5  and  O_6 
REMARK    6  A    between atoms: C_8  and  C_9 
REMARK    7  A    between atoms: C_12  and  O_13 
REMARK    8  A    between atoms: C_19  and  C_20 
REMARK    9  A    between atoms: C_21  and  C_22 
REMARK   10  A    between atoms: C_22  and  C_23 
REMARK   11  A    between atoms: C_23  and  C_24 
REMARK   12  A    between atoms: C_24  and  O_26 
ROOT
HETATM    1  O   UNK N   1      38.993  49.512  46.127  0.00  0.00    -0.269 OA
HETATM    2  C   UNK N   1      39.845  49.002  45.415  0.00  0.00     0.241 C 
HETATM    3  N   UNK N   1      39.722  49.006  44.057  0.00  0.00    -0.351 N 
HETATM    4  H   UNK N   1      40.482  48.596  43.496  0.00  0.00     0.163 HD
ENDROOT
BRANCH   3   5
HETATM    5  C   UNK N   1      38.578  49.581  43.355  0.00  0.00     0.112 C 
BRANCH   5   6
HETATM    6  C   UNK N   1      39.058  50.247  42.053  0.00  0.00     0.189 C 
BRANCH   6   7
HETATM    7  O   UNK N   1      39.637  51.496  42.317  0.00  0.00    -0.399 OA
HETATM    8  H   UNK N   1      38.906  52.096  42.621  0.00  0.00     0.209 HD
ENDBRANCH   6   7
ENDBRANCH   5   6
BRANCH   5   9
HETATM    9  C   UNK N   1      37.507  48.497  43.081  0.00  0.00     0.065 C 
BRANCH   9  10
HETATM   10  C   UNK N   1      36.083  49.002  43.180  0.00  0.00    -0.056 A 
HETATM   11  C   UNK N   1      35.820  50.372  43.353  0.00  0.00     0.010 A 
HETATM   12  C   UNK N   1      34.507  50.832  43.458  0.00  0.00     0.037 A 
HETATM   13  C   UNK N   1      33.439  49.934  43.392  0.00  0.00     0.065 A 
HETATM   14  C   UNK N   1      33.693  48.566  43.210  0.00  0.00     0.037 A 
HETATM   15  C   UNK N   1      35.007  48.102  43.101  0.00  0.00     0.010 A 
BRANCH  13  16
HETATM   16  O   UNK N   1      32.176  50.391  43.503  0.00  0.00    -0.361 OA
HETATM   17  H   UNK N   1      31.541  50.311  42.778  0.00  0.00     0.217 HD
ENDBRANCH  13  16
ENDBRANCH   9  10
ENDBRANCH   5   9
ENDBRANCH   3   5
BRANCH   2  18
HETATM   18  C   UNK N   1      41.047  48.405  46.031  0.00  0.00     0.074 C 
HETATM   19  C   UNK N   1      41.185  47.108  46.399  0.00  0.00     0.012 C 
BRANCH  19  20
HETATM   20  C   UNK N   1      40.139  46.022  46.308  0.00  0.00    -0.065 C 
HETATM   21  C   UNK N   1      40.445  44.760  45.907  0.00  0.00    -0.015 C 
HETATM   22  C   UNK N   1      38.701  46.290  46.693  0.00  0.00     0.048 C 
BRANCH  21  23
HETATM   23  C   UNK N   1      41.816  44.253  45.490  0.00  0.00     0.014 C 
HETATM   24  C   UNK N   1      42.009  44.494  43.983  0.00  0.00     0.015 C 
BRANCH  23  25
HETATM   25  C   UNK N   1      41.989  42.760  45.840  0.00  0.00     0.118 C 
BRANCH  25  26
HETATM   26  C   UNK N   1      43.362  42.225  45.504  0.00  0.00     0.140 C 
HETATM   27  O   UNK N   1      43.593  41.796  44.386  0.00  0.00    -0.650 OA
BRANCH  26  28
HETATM   28  O   UNK N   1      44.344  42.232  46.431  0.00  0.00    -0.776 OA
HETATM   29  H   UNK N   1      45.145  41.701  46.316  0.00  0.00     0.167 HD
ENDBRANCH  26  28
ENDBRANCH  25  26
ENDBRANCH  23  25
ENDBRANCH  21  23
ENDBRANCH  19  20
ENDBRANCH   2  18
TORSDOF 12
ENDMDL
