MODEL 1
REMARK VINA RESULT:      -7.3      0.000      0.000
REMARK  4 active torsions:
REMARK  status: ('A' for Active; 'I' for Inactive)
REMARK    1  A    between atoms: C_8  and  O_10 
REMARK    2  A    between atoms: O_10  and  C_11 
REMARK    3  A    between atoms: C_11  and  C_12 
REMARK    4  A    between atoms: C_16  and  O_17 
ROOT
HETATM    1  C   UNK N   1      28.801  56.454  41.450  0.00  0.00     0.047 C 
HETATM    2  C   UNK N   1      28.031  55.316  40.658  0.00  0.00    -0.030 C 
HETATM    3  C   UNK N   1      28.549  55.269  39.152  0.00  0.00     0.005 C 
HETATM    4  C   UNK N   1      28.037  54.046  38.274  0.00  0.00    -0.017 C 
HETATM    5  C   UNK N   1      28.271  52.720  39.076  0.00  0.00     0.126 C 
HETATM    6  C   UNK N   1      27.668  52.767  40.497  0.00  0.00     0.033 C 
HETATM    7  C   UNK N   1      28.284  53.920  41.303  0.00  0.00     0.013 C 
HETATM    8  C   UNK N   1      26.560  54.157  37.808  0.00  0.00     0.018 C 
HETATM    9  C   UNK N   1      28.889  53.958  36.976  0.00  0.00     0.018 C 
HETATM   10  C   UNK N   1      28.378  56.663  38.465  0.00  0.00     0.010 C 
HETATM   11  C   UNK N   1      29.106  57.770  39.241  0.00  0.00     0.034 C 
HETATM   12  C   UNK N   1      28.659  57.756  40.680  0.00  0.00    -0.082 C 
HETATM   13  C   UNK N   1      28.136  58.851  41.254  0.00  0.00     0.015 C 
HETATM   14  C   UNK N   1      26.514  55.657  40.806  0.00  0.00     0.016 C 
ENDROOT
BRANCH   1  15
HETATM   15  C   UNK N   1      30.296  56.173  41.706  0.00  0.00     0.185 C 
BRANCH  15  16
HETATM   16  O   UNK N   1      30.527  55.947  43.050  0.00  0.00    -0.350 OA
BRANCH  16  17
HETATM   17  C   UNK N   1      31.370  54.991  43.523  0.00  0.00     0.071 A 
HETATM   18  C   UNK N   1      32.333  55.348  44.478  0.00  0.00     0.038 A 
HETATM   19  C   UNK N   1      33.217  54.391  44.987  0.00  0.00     0.017 A 
HETATM   20  C   UNK N   1      33.145  53.062  44.542  0.00  0.00    -0.002 A 
HETATM   21  C   UNK N   1      32.179  52.695  43.583  0.00  0.00     0.092 A 
HETATM   22  C   UNK N   1      34.010  52.080  45.027  0.00  0.00     0.020 A 
HETATM   23  O   UNK N   1      32.101  51.439  43.154  0.00  0.00    -0.275 OA
HETATM   24  C   UNK N   1      31.301  53.652  43.080  0.00  0.00     0.075 A 
HETATM   25  C   UNK N   1      32.913  50.481  43.596  0.00  0.00     0.288 A 
HETATM   26  O   UNK N   1      32.799  49.349  43.169  0.00  0.00    -0.260 OA
HETATM   27  C   UNK N   1      33.895  50.775  44.550  0.00  0.00     0.083 A 
ENDBRANCH  16  17
ENDBRANCH  15  16
ENDBRANCH   1  15
BRANCH   5  28
HETATM   28  O   UNK N   1      27.748  51.623  38.367  0.00  0.00    -0.395 OA
HETATM   29  H   UNK N   1      26.811  51.496  38.668  0.00  0.00     0.210 HD
ENDBRANCH   5  28
TORSDOF 4
ENDMDL
MODEL 2
REMARK VINA RESULT:      -6.6     10.142     16.020
REMARK  4 active torsions:
REMARK  status: ('A' for Active; 'I' for Inactive)
REMARK    1  A    between atoms: C_8  and  O_10 
REMARK    2  A    between atoms: O_10  and  C_11 
REMARK    3  A    between atoms: C_11  and  C_12 
REMARK    4  A    between atoms: C_16  and  O_17 
ROOT
HETATM    1  C   UNK N   1      40.713  45.567  48.080  0.00  0.00     0.047 C 
HETATM    2  C   UNK N   1      40.872  44.532  49.272  0.00  0.00    -0.030 C 
HETATM    3  C   UNK N   1      41.353  45.298  50.583  0.00  0.00     0.005 C 
HETATM    4  C   UNK N   1      41.357  44.449  51.928  0.00  0.00    -0.017 C 
HETATM    5  C   UNK N   1      39.971  43.733  52.074  0.00  0.00     0.126 C 
HETATM    6  C   UNK N   1      39.584  42.919  50.819  0.00  0.00     0.033 C 
HETATM    7  C   UNK N   1      39.515  43.834  49.587  0.00  0.00     0.013 C 
HETATM    8  C   UNK N   1      42.522  43.429  52.045  0.00  0.00     0.018 C 
HETATM    9  C   UNK N   1      41.511  45.412  53.139  0.00  0.00     0.018 C 
HETATM   10  C   UNK N   1      42.683  46.074  50.314  0.00  0.00     0.010 C 
HETATM   11  C   UNK N   1      42.538  47.061  49.147  0.00  0.00     0.034 C 
HETATM   12  C   UNK N   1      42.014  46.337  47.934  0.00  0.00    -0.082 C 
HETATM   13  C   UNK N   1      42.686  46.356  46.772  0.00  0.00     0.015 C 
HETATM   14  C   UNK N   1      41.873  43.451  48.756  0.00  0.00     0.016 C 
ENDROOT
BRANCH   1  15
HETATM   15  C   UNK N   1      39.544  46.563  48.233  0.00  0.00     0.185 C 
BRANCH  15  16
HETATM   16  O   UNK N   1      38.900  46.749  47.025  0.00  0.00    -0.350 OA
BRANCH  16  17
HETATM   17  C   UNK N   1      39.174  47.769  46.169  0.00  0.00     0.071 A 
HETATM   18  C   UNK N   1      40.130  48.725  46.539  0.00  0.00     0.038 A 
HETATM   19  C   UNK N   1      40.439  49.790  45.684  0.00  0.00     0.017 A 
HETATM   20  C   UNK N   1      39.788  49.906  44.447  0.00  0.00    -0.002 A 
HETATM   21  C   UNK N   1      38.825  48.948  44.067  0.00  0.00     0.092 A 
HETATM   22  C   UNK N   1      40.069  50.953  43.568  0.00  0.00     0.020 A 
HETATM   23  O   UNK N   1      38.202  49.048  42.897  0.00  0.00    -0.275 OA
HETATM   24  C   UNK N   1      38.523  47.891  44.922  0.00  0.00     0.075 A 
HETATM   25  C   UNK N   1      38.448  50.036  42.039  0.00  0.00     0.288 A 
HETATM   26  O   UNK N   1      37.848  50.080  40.982  0.00  0.00    -0.260 OA
HETATM   27  C   UNK N   1      39.392  51.021  42.351  0.00  0.00     0.083 A 
ENDBRANCH  16  17
ENDBRANCH  15  16
ENDBRANCH   1  15
BRANCH   5  28
HETATM   28  O   UNK N   1      39.970  42.900  53.208  0.00  0.00    -0.395 OA
HETATM   29  H   UNK N   1      39.371  42.134  53.011  0.00  0.00     0.210 HD
ENDBRANCH   5  28
TORSDOF 4
ENDMDL
MODEL 3
REMARK VINA RESULT:      -6.4     10.572     15.327
REMARK  4 active torsions:
REMARK  status: ('A' for Active; 'I' for Inactive)
REMARK    1  A    between atoms: C_8  and  O_10 
REMARK    2  A    between atoms: O_10  and  C_11 
REMARK    3  A    between atoms: C_11  and  C_12 
REMARK    4  A    between atoms: C_16  and  O_17 
ROOT
HETATM    1  C   UNK N   1      41.105  47.325  47.394  0.00  0.00     0.047 C 
HETATM    2  C   UNK N   1      41.041  45.936  48.157  0.00  0.00    -0.030 C 
HETATM    3  C   UNK N   1      41.578  46.119  49.645  0.00  0.00     0.005 C 
HETATM    4  C   UNK N   1      41.385  44.876  50.617  0.00  0.00    -0.017 C 
HETATM    5  C   UNK N   1      39.897  44.394  50.525  0.00  0.00     0.126 C 
HETATM    6  C   UNK N   1      39.442  44.131  49.073  0.00  0.00     0.033 C 
HETATM    7  C   UNK N   1      39.577  45.408  48.230  0.00  0.00     0.013 C 
HETATM    8  C   UNK N   1      42.364  43.698  50.362  0.00  0.00     0.018 C 
HETATM    9  C   UNK N   1      41.636  45.330  52.083  0.00  0.00     0.018 C 
HETATM   10  C   UNK N   1      43.027  46.707  49.642  0.00  0.00     0.010 C 
HETATM   11  C   UNK N   1      43.095  48.042  48.886  0.00  0.00     0.034 C 
HETATM   12  C   UNK N   1      42.518  47.871  47.505  0.00  0.00    -0.082 C 
HETATM   13  C   UNK N   1      43.236  48.172  46.411  0.00  0.00     0.015 C 
HETATM   14  C   UNK N   1      41.878  44.944  47.289  0.00  0.00     0.016 C 
ENDROOT
BRANCH   1  15
HETATM   15  C   UNK N   1      40.105  48.390  47.894  0.00  0.00     0.185 C 
BRANCH  15  16
HETATM   16  O   UNK N   1      39.010  48.464  47.053  0.00  0.00    -0.350 OA
BRANCH  16  17
HETATM   17  C   UNK N   1      39.051  48.994  45.802  0.00  0.00     0.071 A 
HETATM   18  C   UNK N   1      38.599  48.221  44.724  0.00  0.00     0.038 A 
HETATM   19  C   UNK N   1      38.625  48.734  43.421  0.00  0.00     0.017 A 
HETATM   20  C   UNK N   1      39.108  50.030  43.189  0.00  0.00    -0.002 A 
HETATM   21  C   UNK N   1      39.564  50.814  44.268  0.00  0.00     0.092 A 
HETATM   22  C   UNK N   1      39.150  50.575  41.904  0.00  0.00     0.020 A 
HETATM   23  O   UNK N   1      40.023  52.044  44.059  0.00  0.00    -0.275 OA
HETATM   24  C   UNK N   1      39.534  50.299  45.561  0.00  0.00     0.075 A 
HETATM   25  C   UNK N   1      40.077  52.590  42.846  0.00  0.00     0.288 A 
HETATM   26  O   UNK N   1      40.508  53.719  42.711  0.00  0.00    -0.260 OA
HETATM   27  C   UNK N   1      39.640  51.869  41.729  0.00  0.00     0.083 A 
ENDBRANCH  16  17
ENDBRANCH  15  16
ENDBRANCH   1  15
BRANCH   5  28
HETATM   28  O   UNK N   1      39.710  43.238  51.305  0.00  0.00    -0.395 OA
HETATM   29  H   UNK N   1      38.736  43.148  51.473  0.00  0.00     0.210 HD
ENDBRANCH   5  28
TORSDOF 4
ENDMDL
MODEL 4
REMARK VINA RESULT:      -6.3     19.037     22.157
REMARK  4 active torsions:
REMARK  status: ('A' for Active; 'I' for Inactive)
REMARK    1  A    between atoms: C_8  and  O_10 
REMARK    2  A    between atoms: O_10  and  C_11 
REMARK    3  A    between atoms: C_11  and  C_12 
REMARK    4  A    between atoms: C_16  and  O_17 
ROOT
HETATM    1  C   UNK N   1      32.465  43.214  60.062  0.00  0.00     0.047 C 
HETATM    2  C   UNK N   1      31.423  43.608  58.932  0.00  0.00    -0.030 C 
HETATM    3  C   UNK N   1      30.074  42.788  59.142  0.00  0.00     0.005 C 
HETATM    4  C   UNK N   1      28.846  43.217  58.226  0.00  0.00    -0.017 C 
HETATM    5  C   UNK N   1      28.674  44.772  58.312  0.00  0.00     0.126 C 
HETATM    6  C   UNK N   1      29.982  45.535  58.005  0.00  0.00     0.033 C 
HETATM    7  C   UNK N   1      31.085  45.127  58.993  0.00  0.00     0.013 C 
HETATM    8  C   UNK N   1      28.949  42.752  56.748  0.00  0.00     0.018 C 
HETATM    9  C   UNK N   1      27.544  42.575  58.785  0.00  0.00     0.018 C 
HETATM   10  C   UNK N   1      30.356  41.251  59.153  0.00  0.00     0.010 C 
HETATM   11  C   UNK N   1      31.379  40.870  60.232  0.00  0.00     0.034 C 
HETATM   12  C   UNK N   1      32.623  41.703  60.065  0.00  0.00    -0.082 C 
HETATM   13  C   UNK N   1      33.826  41.128  59.906  0.00  0.00     0.015 C 
HETATM   14  C   UNK N   1      32.147  43.319  57.578  0.00  0.00     0.016 C 
ENDROOT
BRANCH   1  15
HETATM   15  C   UNK N   1      32.098  43.692  61.483  0.00  0.00     0.185 C 
BRANCH  15  16
HETATM   16  O   UNK N   1      33.164  43.523  62.346  0.00  0.00    -0.350 OA
BRANCH  16  17
HETATM   17  C   UNK N   1      34.249  44.342  62.377  0.00  0.00     0.071 A 
HETATM   18  C   UNK N   1      35.375  44.006  61.612  0.00  0.00     0.038 A 
HETATM   19  C   UNK N   1      36.509  44.826  61.620  0.00  0.00     0.017 A 
HETATM   20  C   UNK N   1      36.525  45.992  62.399  0.00  0.00    -0.002 A 
HETATM   21  C   UNK N   1      35.397  46.337  63.171  0.00  0.00     0.092 A 
HETATM   22  C   UNK N   1      37.639  46.834  62.433  0.00  0.00     0.020 A 
HETATM   23  O   UNK N   1      35.402  47.441  63.913  0.00  0.00    -0.275 OA
HETATM   24  C   UNK N   1      34.271  45.519  63.159  0.00  0.00     0.075 A 
HETATM   25  C   UNK N   1      36.448  48.261  63.966  0.00  0.00     0.288 A 
HETATM   26  O   UNK N   1      36.399  49.257  64.662  0.00  0.00    -0.260 OA
HETATM   27  C   UNK N   1      37.602  47.981  63.225  0.00  0.00     0.083 A 
ENDBRANCH  16  17
ENDBRANCH  15  16
ENDBRANCH   1  15
BRANCH   5  28
HETATM   28  O   UNK N   1      27.653  45.198  57.443  0.00  0.00    -0.395 OA
HETATM   29  H   UNK N   1      27.722  46.184  57.366  0.00  0.00     0.210 HD
ENDBRANCH   5  28
TORSDOF 4
ENDMDL
MODEL 5
REMARK VINA RESULT:      -6.0     18.792     21.436
REMARK  4 active torsions:
REMARK  status: ('A' for Active; 'I' for Inactive)
REMARK    1  A    between atoms: C_8  and  O_10 
REMARK    2  A    between atoms: O_10  and  C_11 
REMARK    3  A    between atoms: C_11  and  C_12 
REMARK    4  A    between atoms: C_16  and  O_17 
ROOT
HETATM    1  C   UNK N   1      31.345  43.752  58.467  0.00  0.00     0.047 C 
HETATM    2  C   UNK N   1      30.393  45.000  58.699  0.00  0.00    -0.030 C 
HETATM    3  C   UNK N   1      28.873  44.544  58.561  0.00  0.00     0.005 C 
HETATM    4  C   UNK N   1      27.780  45.622  58.974  0.00  0.00    -0.017 C 
HETATM    5  C   UNK N   1      28.152  46.201  60.381  0.00  0.00     0.126 C 
HETATM    6  C   UNK N   1      29.604  46.725  60.447  0.00  0.00     0.033 C 
HETATM    7  C   UNK N   1      30.595  45.597  60.124  0.00  0.00     0.013 C 
HETATM    8  C   UNK N   1      27.575  46.764  57.942  0.00  0.00     0.018 C 
HETATM    9  C   UNK N   1      26.398  44.921  59.113  0.00  0.00     0.018 C 
HETATM   10  C   UNK N   1      28.619  43.878  57.170  0.00  0.00     0.010 C 
HETATM   11  C   UNK N   1      29.554  42.682  56.934  0.00  0.00     0.034 C 
HETATM   12  C   UNK N   1      30.983  43.111  57.138  0.00  0.00    -0.082 C 
HETATM   13  C   UNK N   1      31.900  42.949  56.171  0.00  0.00     0.015 C 
HETATM   14  C   UNK N   1      30.841  46.068  57.651  0.00  0.00     0.016 C 
ENDROOT
BRANCH   1  15
HETATM   15  C   UNK N   1      31.301  42.683  59.579  0.00  0.00     0.185 C 
BRANCH  15  16
HETATM   16  O   UNK N   1      32.579  42.335  59.973  0.00  0.00    -0.350 OA
BRANCH  16  17
HETATM   17  C   UNK N   1      33.283  42.998  60.929  0.00  0.00     0.071 A 
HETATM   18  C   UNK N   1      32.634  43.363  62.117  0.00  0.00     0.038 A 
HETATM   19  C   UNK N   1      33.327  44.045  63.124  0.00  0.00     0.017 A 
HETATM   20  C   UNK N   1      34.680  44.370  62.947  0.00  0.00    -0.002 A 
HETATM   21  C   UNK N   1      35.340  44.006  61.755  0.00  0.00     0.092 A 
HETATM   22  C   UNK N   1      35.404  45.050  63.928  0.00  0.00     0.020 A 
HETATM   23  O   UNK N   1      36.623  44.308  61.577  0.00  0.00    -0.275 OA
HETATM   24  C   UNK N   1      34.646  43.326  60.758  0.00  0.00     0.075 A 
HETATM   25  C   UNK N   1      37.337  44.957  62.493  0.00  0.00     0.288 A 
HETATM   26  O   UNK N   1      38.507  45.209  62.278  0.00  0.00    -0.260 OA
HETATM   27  C   UNK N   1      36.747  45.348  63.701  0.00  0.00     0.083 A 
ENDBRANCH  16  17
ENDBRANCH  15  16
ENDBRANCH   1  15
BRANCH   5  28
HETATM   28  O   UNK N   1      27.255  47.224  60.740  0.00  0.00    -0.395 OA
HETATM   29  H   UNK N   1      26.482  47.171  60.120  0.00  0.00     0.210 HD
ENDBRANCH   5  28
TORSDOF 4
ENDMDL
MODEL 6
REMARK VINA RESULT:      -6.0      2.262      3.940
REMARK  4 active torsions:
REMARK  status: ('A' for Active; 'I' for Inactive)
REMARK    1  A    between atoms: C_8  and  O_10 
REMARK    2  A    between atoms: O_10  and  C_11 
REMARK    3  A    between atoms: C_11  and  C_12 
REMARK    4  A    between atoms: C_16  and  O_17 
ROOT
HETATM    1  C   UNK N   1      28.858  54.330  41.502  0.00  0.00     0.047 C 
HETATM    2  C   UNK N   1      27.521  55.165  41.322  0.00  0.00    -0.030 C 
HETATM    3  C   UNK N   1      27.843  56.533  40.573  0.00  0.00     0.005 C 
HETATM    4  C   UNK N   1      26.586  57.395  40.121  0.00  0.00    -0.017 C 
HETATM    5  C   UNK N   1      25.587  56.462  39.354  0.00  0.00     0.126 C 
HETATM    6  C   UNK N   1      25.221  55.192  40.155  0.00  0.00     0.033 C 
HETATM    7  C   UNK N   1      26.483  54.376  40.469  0.00  0.00     0.013 C 
HETATM    8  C   UNK N   1      25.867  58.146  41.274  0.00  0.00     0.018 C 
HETATM    9  C   UNK N   1      27.052  58.493  39.123  0.00  0.00     0.018 C 
HETATM   10  C   UNK N   1      28.928  57.347  41.350  0.00  0.00     0.010 C 
HETATM   11  C   UNK N   1      30.216  56.533  41.543  0.00  0.00     0.034 C 
HETATM   12  C   UNK N   1      29.888  55.212  42.188  0.00  0.00    -0.082 C 
HETATM   13  C   UNK N   1      30.471  54.838  43.337  0.00  0.00     0.015 C 
HETATM   14  C   UNK N   1      26.942  55.340  42.762  0.00  0.00     0.016 C 
ENDROOT
BRANCH   1  15
HETATM   15  C   UNK N   1      29.456  53.768  40.195  0.00  0.00     0.185 C 
BRANCH  15  16
HETATM   16  O   UNK N   1      29.268  52.400  40.121  0.00  0.00    -0.350 OA
BRANCH  16  17
HETATM   17  C   UNK N   1      30.057  51.492  40.754  0.00  0.00     0.071 A 
HETATM   18  C   UNK N   1      29.740  50.131  40.652  0.00  0.00     0.038 A 
HETATM   19  C   UNK N   1      30.531  49.167  41.289  0.00  0.00     0.017 A 
HETATM   20  C   UNK N   1      31.649  49.562  42.038  0.00  0.00    -0.002 A 
HETATM   21  C   UNK N   1      31.975  50.930  42.145  0.00  0.00     0.092 A 
HETATM   22  C   UNK N   1      32.461  48.631  42.688  0.00  0.00     0.020 A 
HETATM   23  O   UNK N   1      33.033  51.316  42.852  0.00  0.00    -0.275 OA
HETATM   24  C   UNK N   1      31.186  51.884  41.508  0.00  0.00     0.075 A 
HETATM   25  C   UNK N   1      33.824  50.451  43.483  0.00  0.00     0.288 A 
HETATM   26  O   UNK N   1      34.778  50.859  44.117  0.00  0.00    -0.260 OA
HETATM   27  C   UNK N   1      33.560  49.078  43.419  0.00  0.00     0.083 A 
ENDBRANCH  16  17
ENDBRANCH  15  16
ENDBRANCH   1  15
BRANCH   5  28
HETATM   28  O   UNK N   1      24.419  57.171  39.016  0.00  0.00    -0.395 OA
HETATM   29  H   UNK N   1      24.470  58.055  39.463  0.00  0.00     0.210 HD
ENDBRANCH   5  28
TORSDOF 4
ENDMDL
MODEL 7
REMARK VINA RESULT:      -6.0     18.617     21.531
REMARK  4 active torsions:
REMARK  status: ('A' for Active; 'I' for Inactive)
REMARK    1  A    between atoms: C_8  and  O_10 
REMARK    2  A    between atoms: O_10  and  C_11 
REMARK    3  A    between atoms: C_11  and  C_12 
REMARK    4  A    between atoms: C_16  and  O_17 
ROOT
HETATM    1  C   UNK N   1      30.437  42.810  59.589  0.00  0.00     0.047 C 
HETATM    2  C   UNK N   1      29.617  42.237  58.357  0.00  0.00    -0.030 C 
HETATM    3  C   UNK N   1      30.463  42.421  57.021  0.00  0.00     0.005 C 
HETATM    4  C   UNK N   1      29.884  41.709  55.723  0.00  0.00    -0.017 C 
HETATM    5  C   UNK N   1      29.551  40.218  56.073  0.00  0.00     0.126 C 
HETATM    6  C   UNK N   1      28.646  40.085  57.318  0.00  0.00     0.033 C 
HETATM    7  C   UNK N   1      29.323  40.718  58.543  0.00  0.00     0.013 C 
HETATM    8  C   UNK N   1      28.654  42.417  55.092  0.00  0.00     0.018 C 
HETATM    9  C   UNK N   1      30.979  41.692  54.618  0.00  0.00     0.018 C 
HETATM   10  C   UNK N   1      30.845  43.922  56.809  0.00  0.00     0.010 C 
HETATM   11  C   UNK N   1      31.621  44.484  58.009  0.00  0.00     0.034 C 
HETATM   12  C   UNK N   1      30.842  44.240  59.275  0.00  0.00    -0.082 C 
HETATM   13  C   UNK N   1      30.500  45.254  60.085  0.00  0.00     0.015 C 
HETATM   14  C   UNK N   1      28.257  43.005  58.368  0.00  0.00     0.016 C 
ENDROOT
BRANCH   1  15
HETATM   15  C   UNK N   1      31.692  41.996  59.971  0.00  0.00     0.185 C 
BRANCH  15  16
HETATM   16  O   UNK N   1      32.156  42.372  61.218  0.00  0.00    -0.350 OA
BRANCH  16  17
HETATM   17  C   UNK N   1      33.302  43.075  61.419  0.00  0.00     0.071 A 
HETATM   18  C   UNK N   1      34.290  43.059  60.425  0.00  0.00     0.038 A 
HETATM   19  C   UNK N   1      35.483  43.771  60.597  0.00  0.00     0.017 A 
HETATM   20  C   UNK N   1      35.696  44.507  61.772  0.00  0.00    -0.002 A 
HETATM   21  C   UNK N   1      34.707  44.528  62.777  0.00  0.00     0.092 A 
HETATM   22  C   UNK N   1      36.873  45.229  61.980  0.00  0.00     0.020 A 
HETATM   23  O   UNK N   1      34.899  45.223  63.894  0.00  0.00    -0.275 OA
HETATM   24  C   UNK N   1      33.522  43.819  62.599  0.00  0.00     0.075 A 
HETATM   25  C   UNK N   1      36.010  45.919  64.121  0.00  0.00     0.288 A 
HETATM   26  O   UNK N   1      36.134  46.535  65.161  0.00  0.00    -0.260 OA
HETATM   27  C   UNK N   1      37.034  45.942  63.166  0.00  0.00     0.083 A 
ENDBRANCH  16  17
ENDBRANCH  15  16
ENDBRANCH   1  15
BRANCH   5  28
HETATM   28  O   UNK N   1      28.951  39.581  54.972  0.00  0.00    -0.395 OA
HETATM   29  H   UNK N   1      29.543  38.829  54.707  0.00  0.00     0.210 HD
ENDBRANCH   5  28
TORSDOF 4
ENDMDL
MODEL 8
REMARK VINA RESULT:      -5.8     15.999     19.156
REMARK  4 active torsions:
REMARK  status: ('A' for Active; 'I' for Inactive)
REMARK    1  A    between atoms: C_8  and  O_10 
REMARK    2  A    between atoms: O_10  and  C_11 
REMARK    3  A    between atoms: C_11  and  C_12 
REMARK    4  A    between atoms: C_16  and  O_17 
ROOT
HETATM    1  C   UNK N   1      29.743  44.154  59.184  0.00  0.00     0.047 C 
HETATM    2  C   UNK N   1      29.285  45.628  59.554  0.00  0.00    -0.030 C 
HETATM    3  C   UNK N   1      29.363  46.551  58.258  0.00  0.00     0.005 C 
HETATM    4  C   UNK N   1      28.737  48.006  58.398  0.00  0.00    -0.017 C 
HETATM    5  C   UNK N   1      27.301  47.878  59.011  0.00  0.00     0.126 C 
HETATM    6  C   UNK N   1      27.281  47.059  60.321  0.00  0.00     0.033 C 
HETATM    7  C   UNK N   1      27.817  45.641  60.073  0.00  0.00     0.013 C 
HETATM    8  C   UNK N   1      29.601  49.006  59.214  0.00  0.00     0.018 C 
HETATM    9  C   UNK N   1      28.583  48.633  56.983  0.00  0.00     0.018 C 
HETATM   10  C   UNK N   1      30.803  46.531  57.650  0.00  0.00     0.010 C 
HETATM   11  C   UNK N   1      31.256  45.103  57.310  0.00  0.00     0.034 C 
HETATM   12  C   UNK N   1      31.109  44.225  58.525  0.00  0.00    -0.082 C 
HETATM   13  C   UNK N   1      32.156  43.545  59.018  0.00  0.00     0.015 C 
HETATM   14  C   UNK N   1      30.223  46.076  60.719  0.00  0.00     0.016 C 
ENDROOT
BRANCH   1  15
HETATM   15  C   UNK N   1      28.772  43.382  58.265  0.00  0.00     0.185 C 
BRANCH  15  16
HETATM   16  O   UNK N   1      29.453  42.438  57.519  0.00  0.00    -0.350 OA
BRANCH  16  17
HETATM   17  C   UNK N   1      29.366  42.336  56.167  0.00  0.00     0.071 A 
HETATM   18  C   UNK N   1      30.478  41.874  55.449  0.00  0.00     0.038 A 
HETATM   19  C   UNK N   1      30.424  41.755  54.055  0.00  0.00     0.017 A 
HETATM   20  C   UNK N   1      29.252  42.102  53.367  0.00  0.00    -0.002 A 
HETATM   21  C   UNK N   1      28.129  42.567  54.082  0.00  0.00     0.092 A 
HETATM   22  C   UNK N   1      29.161  41.997  51.977  0.00  0.00     0.020 A 
HETATM   23  O   UNK N   1      27.013  42.898  53.440  0.00  0.00    -0.275 OA
HETATM   24  C   UNK N   1      28.188  42.682  55.468  0.00  0.00     0.075 A 
HETATM   25  C   UNK N   1      26.898  42.810  52.117  0.00  0.00     0.288 A 
HETATM   26  O   UNK N   1      25.853  43.127  51.580  0.00  0.00    -0.260 OA
HETATM   27  C   UNK N   1      27.972  42.355  51.344  0.00  0.00     0.083 A 
ENDBRANCH  16  17
ENDBRANCH  15  16
ENDBRANCH   1  15
BRANCH   5  28
HETATM   28  O   UNK N   1      26.750  49.154  59.233  0.00  0.00    -0.395 OA
HETATM   29  H   UNK N   1      26.449  49.186  60.178  0.00  0.00     0.210 HD
ENDBRANCH   5  28
TORSDOF 4
ENDMDL
MODEL 9
REMARK VINA RESULT:      -5.8     16.193     19.901
REMARK  4 active torsions:
REMARK  status: ('A' for Active; 'I' for Inactive)
REMARK    1  A    between atoms: C_8  and  O_10 
REMARK    2  A    between atoms: O_10  and  C_11 
REMARK    3  A    between atoms: C_11  and  C_12 
REMARK    4  A    between atoms: C_16  and  O_17 
ROOT
HETATM    1  C   UNK N   1      29.963  41.668  56.226  0.00  0.00     0.047 C 
HETATM    2  C   UNK N   1      29.299  41.517  54.794  0.00  0.00    -0.030 C 
HETATM    3  C   UNK N   1      27.958  42.374  54.734  0.00  0.00     0.005 C 
HETATM    4  C   UNK N   1      27.276  42.508  53.304  0.00  0.00    -0.017 C 
HETATM    5  C   UNK N   1      28.366  42.946  52.267  0.00  0.00     0.126 C 
HETATM    6  C   UNK N   1      29.611  42.031  52.285  0.00  0.00     0.033 C 
HETATM    7  C   UNK N   1      30.256  42.033  53.679  0.00  0.00     0.013 C 
HETATM    8  C   UNK N   1      26.533  41.233  52.820  0.00  0.00     0.018 C 
HETATM    9  C   UNK N   1      26.204  43.634  53.352  0.00  0.00     0.018 C 
HETATM   10  C   UNK N   1      26.975  41.945  55.871  0.00  0.00     0.010 C 
HETATM   11  C   UNK N   1      27.623  42.071  57.258  0.00  0.00     0.034 C 
HETATM   12  C   UNK N   1      28.926  41.315  57.278  0.00  0.00    -0.082 C 
HETATM   13  C   UNK N   1      29.152  40.348  58.182  0.00  0.00     0.015 C 
HETATM   14  C   UNK N   1      29.090  39.983  54.590  0.00  0.00     0.016 C 
ENDROOT
BRANCH   1  15
HETATM   15  C   UNK N   1      30.544  43.066  56.531  0.00  0.00     0.185 C 
BRANCH  15  16
HETATM   16  O   UNK N   1      31.841  42.964  56.998  0.00  0.00    -0.350 OA
BRANCH  16  17
HETATM   17  C   UNK N   1      32.189  43.108  58.304  0.00  0.00     0.071 A 
HETATM   18  C   UNK N   1      33.475  42.725  58.709  0.00  0.00     0.038 A 
HETATM   19  C   UNK N   1      33.868  42.859  60.046  0.00  0.00     0.017 A 
HETATM   20  C   UNK N   1      32.971  43.378  60.991  0.00  0.00    -0.002 A 
HETATM   21  C   UNK N   1      31.676  43.765  60.592  0.00  0.00     0.092 A 
HETATM   22  C   UNK N   1      33.327  43.525  62.333  0.00  0.00     0.020 A 
HETATM   23  O   UNK N   1      30.818  44.259  61.480  0.00  0.00    -0.275 OA
HETATM   24  C   UNK N   1      31.291  43.631  59.260  0.00  0.00     0.075 A 
HETATM   25  C   UNK N   1      31.128  44.409  62.765  0.00  0.00     0.288 A 
HETATM   26  O   UNK N   1      30.304  44.865  63.535  0.00  0.00    -0.260 OA
HETATM   27  C   UNK N   1      32.397  44.046  63.231  0.00  0.00     0.083 A 
ENDBRANCH  16  17
ENDBRANCH  15  16
ENDBRANCH   1  15
BRANCH   5  28
HETATM   28  O   UNK N   1      27.818  42.988  50.971  0.00  0.00    -0.395 OA
HETATM   29  H   UNK N   1      26.986  42.448  50.985  0.00  0.00     0.210 HD
ENDBRANCH   5  28
TORSDOF 4
ENDMDL
