MODEL 1
REMARK VINA RESULT:      -6.6      0.000      0.000
REMARK  7 active torsions:
REMARK  status: ('A' for Active; 'I' for Inactive)
REMARK    1  A    between atoms: C_8  and  O_10 
REMARK    2  A    between atoms: O_10  and  C_11 
REMARK    3  A    between atoms: C_11  and  C_12 
REMARK    4  A    between atoms: C_12  and  C_13 
REMARK    5  A    between atoms: C_14  and  C_15 
REMARK    6  A    between atoms: C_16  and  C_17 
REMARK    7  A    between atoms: C_17  and  O_18 
ROOT
HETATM    1  O   UNK N   1      30.904  55.751  43.473  0.00  0.00    -0.351 OA
ENDROOT
BRANCH   1   2
HETATM    2  C   UNK N   1      31.672  54.652  43.717  0.00  0.00     0.071 A 
HETATM    3  C   UNK N   1      32.791  54.773  44.558  0.00  0.00     0.038 A 
HETATM    4  C   UNK N   1      33.605  53.663  44.826  0.00  0.00     0.017 A 
HETATM    5  C   UNK N   1      33.302  52.420  44.255  0.00  0.00    -0.002 A 
HETATM    6  C   UNK N   1      32.178  52.288  43.414  0.00  0.00     0.092 A 
HETATM    7  C   UNK N   1      34.091  51.290  44.496  0.00  0.00     0.020 A 
HETATM    8  O   UNK N   1      31.881  51.113  42.867  0.00  0.00    -0.275 OA
HETATM    9  C   UNK N   1      31.372  53.397  43.150  0.00  0.00     0.075 A 
HETATM   10  C   UNK N   1      32.613  50.021  43.077  0.00  0.00     0.288 A 
HETATM   11  O   UNK N   1      32.296  48.973  42.549  0.00  0.00    -0.260 OA
HETATM   12  C   UNK N   1      33.744  50.078  43.899  0.00  0.00     0.083 A 
ENDBRANCH   1   2
BRANCH   1  13
HETATM   13  C   UNK N   1      30.195  55.974  42.303  0.00  0.00     0.180 C 
BRANCH  13  14
HETATM   14  C   UNK N   1      31.146  56.097  41.111  0.00  0.00     0.060 C 
BRANCH  14  15
HETATM   15  C   UNK N   1      30.425  56.036  39.776  0.00  0.00    -0.082 C 
HETATM   16  C   UNK N   1      30.328  54.909  39.026  0.00  0.00     0.002 C 
HETATM   17  C   UNK N   1      29.769  57.301  39.284  0.00  0.00     0.043 C 
BRANCH  16  18
HETATM   18  C   UNK N   1      30.905  53.588  39.410  0.00  0.00    -0.001 C 
HETATM   19  C   UNK N   1      30.196  52.465  39.690  0.00  0.00     0.010 C 
BRANCH  19  20
HETATM   20  C   UNK N   1      28.676  52.266  39.685  0.00  0.00     0.068 C 
HETATM   21  C   UNK N   1      28.086  52.486  38.275  0.00  0.00     0.050 C 
HETATM   22  C   UNK N   1      27.994  53.160  40.746  0.00  0.00     0.050 C 
BRANCH  20  23
HETATM   23  O   UNK N   1      28.448  50.920  40.044  0.00  0.00    -0.387 OA
HETATM   24  H   UNK N   1      27.467  50.766  40.093  0.00  0.00     0.211 HD
ENDBRANCH  20  23
ENDBRANCH  19  20
ENDBRANCH  16  18
ENDBRANCH  14  15
ENDBRANCH  13  14
ENDBRANCH   1  13
TORSDOF 7
ENDMDL
MODEL 2
REMARK VINA RESULT:      -6.1      3.534      7.965
REMARK  7 active torsions:
REMARK  status: ('A' for Active; 'I' for Inactive)
REMARK    1  A    between atoms: C_8  and  O_10 
REMARK    2  A    between atoms: O_10  and  C_11 
REMARK    3  A    between atoms: C_11  and  C_12 
REMARK    4  A    between atoms: C_12  and  C_13 
REMARK    5  A    between atoms: C_14  and  C_15 
REMARK    6  A    between atoms: C_16  and  C_17 
REMARK    7  A    between atoms: C_17  and  O_18 
ROOT
HETATM    1  O   UNK N   1      34.116  51.740  44.858  0.00  0.00    -0.351 OA
ENDROOT
BRANCH   1   2
HETATM    2  C   UNK N   1      33.291  52.744  44.450  0.00  0.00     0.071 A 
HETATM    3  C   UNK N   1      33.476  54.036  44.973  0.00  0.00     0.038 A 
HETATM    4  C   UNK N   1      32.642  55.091  44.577  0.00  0.00     0.017 A 
HETATM    5  C   UNK N   1      31.614  54.862  43.652  0.00  0.00    -0.002 A 
HETATM    6  C   UNK N   1      31.424  53.570  43.119  0.00  0.00     0.092 A 
HETATM    7  C   UNK N   1      30.759  55.887  43.235  0.00  0.00     0.020 A 
HETATM    8  O   UNK N   1      30.454  53.341  42.240  0.00  0.00    -0.275 OA
HETATM    9  C   UNK N   1      32.258  52.523  43.516  0.00  0.00     0.075 A 
HETATM   10  C   UNK N   1      29.625  54.296  41.825  0.00  0.00     0.288 A 
HETATM   11  O   UNK N   1      28.752  54.030  41.021  0.00  0.00    -0.260 OA
HETATM   12  C   UNK N   1      29.752  55.602  42.313  0.00  0.00     0.083 A 
ENDBRANCH   1   2
BRANCH   1  13
HETATM   13  C   UNK N   1      34.232  50.510  44.229  0.00  0.00     0.180 C 
BRANCH  13  14
HETATM   14  C   UNK N   1      35.417  50.509  43.261  0.00  0.00     0.060 C 
BRANCH  14  15
HETATM   15  C   UNK N   1      35.935  49.113  42.969  0.00  0.00    -0.082 C 
HETATM   16  C   UNK N   1      37.191  48.856  42.519  0.00  0.00     0.002 C 
HETATM   17  C   UNK N   1      34.998  47.959  43.220  0.00  0.00     0.043 C 
BRANCH  16  18
HETATM   18  C   UNK N   1      38.223  49.901  42.258  0.00  0.00    -0.001 C 
HETATM   19  C   UNK N   1      39.219  50.259  43.108  0.00  0.00     0.010 C 
BRANCH  19  20
HETATM   20  C   UNK N   1      39.534  49.707  44.503  0.00  0.00     0.068 C 
HETATM   21  C   UNK N   1      39.210  48.199  44.595  0.00  0.00     0.050 C 
HETATM   22  C   UNK N   1      38.814  50.523  45.600  0.00  0.00     0.050 C 
BRANCH  20  23
HETATM   23  O   UNK N   1      40.923  49.862  44.691  0.00  0.00    -0.387 OA
HETATM   24  H   UNK N   1      41.390  49.588  43.857  0.00  0.00     0.211 HD
ENDBRANCH  20  23
ENDBRANCH  19  20
ENDBRANCH  16  18
ENDBRANCH  14  15
ENDBRANCH  13  14
ENDBRANCH   1  13
TORSDOF 7
ENDMDL
MODEL 3
REMARK VINA RESULT:      -6.0      1.284      5.656
REMARK  7 active torsions:
REMARK  status: ('A' for Active; 'I' for Inactive)
REMARK    1  A    between atoms: C_8  and  O_10 
REMARK    2  A    between atoms: O_10  and  C_11 
REMARK    3  A    between atoms: C_11  and  C_12 
REMARK    4  A    between atoms: C_12  and  C_13 
REMARK    5  A    between atoms: C_14  and  C_15 
REMARK    6  A    between atoms: C_16  and  C_17 
REMARK    7  A    between atoms: C_17  and  O_18 
ROOT
HETATM    1  O   UNK N   1      31.037  55.390  43.075  0.00  0.00    -0.351 OA
ENDROOT
BRANCH   1   2
HETATM    2  C   UNK N   1      30.692  54.999  41.817  0.00  0.00     0.071 A 
HETATM    3  C   UNK N   1      31.286  55.637  40.715  0.00  0.00     0.038 A 
HETATM    4  C   UNK N   1      30.951  55.262  39.406  0.00  0.00     0.017 A 
HETATM    5  C   UNK N   1      30.016  54.240  39.190  0.00  0.00    -0.002 A 
HETATM    6  C   UNK N   1      29.418  53.590  40.289  0.00  0.00     0.092 A 
HETATM    7  C   UNK N   1      29.653  53.839  37.900  0.00  0.00     0.020 A 
HETATM    8  O   UNK N   1      28.531  52.619  40.096  0.00  0.00    -0.275 OA
HETATM    9  C   UNK N   1      29.756  53.968  41.590  0.00  0.00     0.075 A 
HETATM   10  C   UNK N   1      28.165  52.216  38.882  0.00  0.00     0.288 A 
HETATM   11  O   UNK N   1      27.347  51.324  38.763  0.00  0.00    -0.260 OA
HETATM   12  C   UNK N   1      28.716  52.817  37.744  0.00  0.00     0.083 A 
ENDBRANCH   1   2
BRANCH   1  13
HETATM   13  C   UNK N   1      30.700  54.707  44.234  0.00  0.00     0.180 C 
BRANCH  13  14
HETATM   14  C   UNK N   1      31.843  54.772  45.249  0.00  0.00     0.060 C 
BRANCH  14  15
HETATM   15  C   UNK N   1      33.144  54.213  44.703  0.00  0.00    -0.082 C 
HETATM   16  C   UNK N   1      33.409  52.885  44.605  0.00  0.00     0.002 C 
HETATM   17  C   UNK N   1      34.178  55.202  44.228  0.00  0.00     0.043 C 
BRANCH  16  18
HETATM   18  C   UNK N   1      32.464  51.804  45.012  0.00  0.00    -0.001 C 
HETATM   19  C   UNK N   1      32.178  50.691  44.290  0.00  0.00     0.010 C 
BRANCH  19  20
HETATM   20  C   UNK N   1      32.727  50.267  42.924  0.00  0.00     0.068 C 
HETATM   21  C   UNK N   1      34.266  50.380  42.878  0.00  0.00     0.050 C 
HETATM   22  C   UNK N   1      32.053  51.061  41.782  0.00  0.00     0.050 C 
BRANCH  20  23
HETATM   23  O   UNK N   1      32.389  48.907  42.761  0.00  0.00    -0.387 OA
HETATM   24  H   UNK N   1      31.621  48.843  42.132  0.00  0.00     0.211 HD
ENDBRANCH  20  23
ENDBRANCH  19  20
ENDBRANCH  16  18
ENDBRANCH  14  15
ENDBRANCH  13  14
ENDBRANCH   1  13
TORSDOF 7
ENDMDL
MODEL 4
REMARK VINA RESULT:      -6.0      1.823      4.804
REMARK  7 active torsions:
REMARK  status: ('A' for Active; 'I' for Inactive)
REMARK    1  A    between atoms: C_8  and  O_10 
REMARK    2  A    between atoms: O_10  and  C_11 
REMARK    3  A    between atoms: C_11  and  C_12 
REMARK    4  A    between atoms: C_12  and  C_13 
REMARK    5  A    between atoms: C_14  and  C_15 
REMARK    6  A    between atoms: C_16  and  C_17 
REMARK    7  A    between atoms: C_17  and  O_18 
ROOT
HETATM    1  O   UNK N   1      29.499  52.571  40.011  0.00  0.00    -0.351 OA
ENDROOT
BRANCH   1   2
HETATM    2  C   UNK N   1      30.225  51.631  40.677  0.00  0.00     0.071 A 
HETATM    3  C   UNK N   1      29.892  50.275  40.525  0.00  0.00     0.038 A 
HETATM    4  C   UNK N   1      30.617  49.282  41.199  0.00  0.00     0.017 A 
HETATM    5  C   UNK N   1      31.685  49.641  42.033  0.00  0.00    -0.002 A 
HETATM    6  C   UNK N   1      32.030  50.999  42.189  0.00  0.00     0.092 A 
HETATM    7  C   UNK N   1      32.430  48.680  42.725  0.00  0.00     0.020 A 
HETATM    8  O   UNK N   1      33.041  51.351  42.976  0.00  0.00    -0.275 OA
HETATM    9  C   UNK N   1      31.304  51.983  41.515  0.00  0.00     0.075 A 
HETATM   10  C   UNK N   1      33.767  50.460  43.648  0.00  0.00     0.288 A 
HETATM   11  O   UNK N   1      34.680  50.838  44.356  0.00  0.00    -0.260 OA
HETATM   12  C   UNK N   1      33.481  49.094  43.543  0.00  0.00     0.083 A 
ENDBRANCH   1   2
BRANCH   1  13
HETATM   13  C   UNK N   1      29.666  53.941  40.148  0.00  0.00     0.180 C 
BRANCH  13  14
HETATM   14  C   UNK N   1      29.195  54.407  41.527  0.00  0.00     0.060 C 
BRANCH  14  15
HETATM   15  C   UNK N   1      29.973  55.605  42.039  0.00  0.00    -0.082 C 
HETATM   16  C   UNK N   1      30.569  55.648  43.259  0.00  0.00     0.002 C 
HETATM   17  C   UNK N   1      30.100  56.794  41.121  0.00  0.00     0.043 C 
BRANCH  16  18
HETATM   18  C   UNK N   1      30.545  54.532  44.249  0.00  0.00    -0.001 C 
HETATM   19  C   UNK N   1      31.621  54.040  44.914  0.00  0.00     0.010 C 
BRANCH  19  20
HETATM   20  C   UNK N   1      33.086  54.482  44.826  0.00  0.00     0.068 C 
HETATM   21  C   UNK N   1      33.360  55.697  45.739  0.00  0.00     0.050 C 
HETATM   22  C   UNK N   1      33.500  54.752  43.362  0.00  0.00     0.050 C 
BRANCH  20  23
HETATM   23  O   UNK N   1      33.860  53.402  45.301  0.00  0.00    -0.387 OA
HETATM   24  H   UNK N   1      33.318  52.571  45.239  0.00  0.00     0.211 HD
ENDBRANCH  20  23
ENDBRANCH  19  20
ENDBRANCH  16  18
ENDBRANCH  14  15
ENDBRANCH  13  14
ENDBRANCH   1  13
TORSDOF 7
ENDMDL
MODEL 5
REMARK VINA RESULT:      -5.9      1.407      1.968
REMARK  7 active torsions:
REMARK  status: ('A' for Active; 'I' for Inactive)
REMARK    1  A    between atoms: C_8  and  O_10 
REMARK    2  A    between atoms: O_10  and  C_11 
REMARK    3  A    between atoms: C_11  and  C_12 
REMARK    4  A    between atoms: C_12  and  C_13 
REMARK    5  A    between atoms: C_14  and  C_15 
REMARK    6  A    between atoms: C_16  and  C_17 
REMARK    7  A    between atoms: C_17  and  O_18 
ROOT
HETATM    1  O   UNK N   1      30.055  55.101  41.537  0.00  0.00    -0.351 OA
ENDROOT
BRANCH   1   2
HETATM    2  C   UNK N   1      30.946  54.533  42.397  0.00  0.00     0.071 A 
HETATM    3  C   UNK N   1      31.691  55.360  43.254  0.00  0.00     0.038 A 
HETATM    4  C   UNK N   1      32.619  54.809  44.148  0.00  0.00     0.017 A 
HETATM    5  C   UNK N   1      32.809  53.421  44.192  0.00  0.00    -0.002 A 
HETATM    6  C   UNK N   1      32.062  52.582  43.339  0.00  0.00     0.092 A 
HETATM    7  C   UNK N   1      33.727  52.832  45.067  0.00  0.00     0.020 A 
HETATM    8  O   UNK N   1      32.232  51.264  43.372  0.00  0.00    -0.275 OA
HETATM    9  C   UNK N   1      31.139  53.137  42.450  0.00  0.00     0.075 A 
HETATM   10  C   UNK N   1      33.099  50.676  44.194  0.00  0.00     0.288 A 
HETATM   11  O   UNK N   1      33.216  49.466  44.180  0.00  0.00    -0.260 OA
HETATM   12  C   UNK N   1      33.876  51.446  45.068  0.00  0.00     0.083 A 
ENDBRANCH   1   2
BRANCH   1  13
HETATM   13  C   UNK N   1      30.398  55.751  40.361  0.00  0.00     0.180 C 
BRANCH  13  14
HETATM   14  C   UNK N   1      30.889  54.750  39.314  0.00  0.00     0.060 C 
BRANCH  14  15
HETATM   15  C   UNK N   1      29.833  54.420  38.276  0.00  0.00    -0.082 C 
HETATM   16  C   UNK N   1      29.004  53.348  38.362  0.00  0.00     0.002 C 
HETATM   17  C   UNK N   1      29.697  55.358  37.104  0.00  0.00     0.043 C 
BRANCH  16  18
HETATM   18  C   UNK N   1      29.014  52.362  39.480  0.00  0.00    -0.001 C 
HETATM   19  C   UNK N   1      28.016  52.174  40.380  0.00  0.00     0.010 C 
BRANCH  19  20
HETATM   20  C   UNK N   1      26.668  52.898  40.481  0.00  0.00     0.068 C 
HETATM   21  C   UNK N   1      25.846  52.734  39.184  0.00  0.00     0.050 C 
HETATM   22  C   UNK N   1      26.861  54.383  40.862  0.00  0.00     0.050 C 
BRANCH  20  23
HETATM   23  O   UNK N   1      25.955  52.273  41.525  0.00  0.00    -0.387 OA
HETATM   24  H   UNK N   1      26.605  51.842  42.142  0.00  0.00     0.211 HD
ENDBRANCH  20  23
ENDBRANCH  19  20
ENDBRANCH  16  18
ENDBRANCH  14  15
ENDBRANCH  13  14
ENDBRANCH   1  13
TORSDOF 7
ENDMDL
MODEL 6
REMARK VINA RESULT:      -5.6      2.128      3.289
REMARK  7 active torsions:
REMARK  status: ('A' for Active; 'I' for Inactive)
REMARK    1  A    between atoms: C_8  and  O_10 
REMARK    2  A    between atoms: O_10  and  C_11 
REMARK    3  A    between atoms: C_11  and  C_12 
REMARK    4  A    between atoms: C_12  and  C_13 
REMARK    5  A    between atoms: C_14  and  C_15 
REMARK    6  A    between atoms: C_16  and  C_17 
REMARK    7  A    between atoms: C_17  and  O_18 
ROOT
HETATM    1  O   UNK N   1      31.889  52.402  44.308  0.00  0.00    -0.351 OA
ENDROOT
BRANCH   1   2
HETATM    2  C   UNK N   1      32.662  51.332  43.974  0.00  0.00     0.071 A 
HETATM    3  C   UNK N   1      32.070  50.060  43.892  0.00  0.00     0.038 A 
HETATM    4  C   UNK N   1      32.837  48.936  43.556  0.00  0.00     0.017 A 
HETATM    5  C   UNK N   1      34.208  49.077  43.298  0.00  0.00    -0.002 A 
HETATM    6  C   UNK N   1      34.810  50.350  43.373  0.00  0.00     0.092 A 
HETATM    7  C   UNK N   1      35.008  47.980  42.963  0.00  0.00     0.020 A 
HETATM    8  O   UNK N   1      36.109  50.496  43.130  0.00  0.00    -0.275 OA
HETATM    9  C   UNK N   1      34.040  51.465  43.709  0.00  0.00     0.075 A 
HETATM   10  C   UNK N   1      36.895  49.471  42.809  0.00  0.00     0.288 A 
HETATM   11  O   UNK N   1      38.077  49.661  42.599  0.00  0.00    -0.260 OA
HETATM   12  C   UNK N   1      36.367  48.178  42.717  0.00  0.00     0.083 A 
ENDBRANCH   1   2
BRANCH   1  13
HETATM   13  C   UNK N   1      31.991  53.660  43.731  0.00  0.00     0.180 C 
BRANCH  13  14
HETATM   14  C   UNK N   1      30.638  54.112  43.181  0.00  0.00     0.060 C 
BRANCH  14  15
HETATM   15  C   UNK N   1      30.720  54.596  41.745  0.00  0.00    -0.082 C 
HETATM   16  C   UNK N   1      30.696  53.767  40.670  0.00  0.00     0.002 C 
HETATM   17  C   UNK N   1      30.809  56.084  41.519  0.00  0.00     0.043 C 
BRANCH  16  18
HETATM   18  C   UNK N   1      30.582  52.282  40.753  0.00  0.00    -0.001 C 
HETATM   19  C   UNK N   1      29.521  51.545  40.335  0.00  0.00     0.010 C 
BRANCH  19  20
HETATM   20  C   UNK N   1      28.214  52.025  39.694  0.00  0.00     0.068 C 
HETATM   21  C   UNK N   1      28.473  52.698  38.329  0.00  0.00     0.050 C 
HETATM   22  C   UNK N   1      27.428  52.945  40.655  0.00  0.00     0.050 C 
BRANCH  20  23
HETATM   23  O   UNK N   1      27.433  50.872  39.466  0.00  0.00    -0.387 OA
HETATM   24  H   UNK N   1      26.490  51.073  39.709  0.00  0.00     0.211 HD
ENDBRANCH  20  23
ENDBRANCH  19  20
ENDBRANCH  16  18
ENDBRANCH  14  15
ENDBRANCH  13  14
ENDBRANCH   1  13
TORSDOF 7
ENDMDL
MODEL 7
REMARK VINA RESULT:      -5.6      1.786      3.820
REMARK  7 active torsions:
REMARK  status: ('A' for Active; 'I' for Inactive)
REMARK    1  A    between atoms: C_8  and  O_10 
REMARK    2  A    between atoms: O_10  and  C_11 
REMARK    3  A    between atoms: C_11  and  C_12 
REMARK    4  A    between atoms: C_12  and  C_13 
REMARK    5  A    between atoms: C_14  and  C_15 
REMARK    6  A    between atoms: C_16  and  C_17 
REMARK    7  A    between atoms: C_17  and  O_18 
ROOT
HETATM    1  O   UNK N   1      28.533  54.103  41.006  0.00  0.00    -0.351 OA
ENDROOT
BRANCH   1   2
HETATM    2  C   UNK N   1      29.557  54.317  41.877  0.00  0.00     0.071 A 
HETATM    3  C   UNK N   1      29.742  55.603  42.413  0.00  0.00     0.038 A 
HETATM    4  C   UNK N   1      30.789  55.859  43.310  0.00  0.00     0.017 A 
HETATM    5  C   UNK N   1      31.661  54.827  43.679  0.00  0.00    -0.002 A 
HETATM    6  C   UNK N   1      31.481  53.532  43.150  0.00  0.00     0.092 A 
HETATM    7  C   UNK N   1      32.719  55.042  44.568  0.00  0.00     0.020 A 
HETATM    8  O   UNK N   1      32.302  52.544  43.494  0.00  0.00    -0.275 OA
HETATM    9  C   UNK N   1      30.437  53.283  42.258  0.00  0.00     0.075 A 
HETATM   10  C   UNK N   1      33.318  52.719  44.337  0.00  0.00     0.288 A 
HETATM   11  O   UNK N   1      34.039  51.781  44.614  0.00  0.00    -0.260 OA
HETATM   12  C   UNK N   1      33.558  53.978  44.899  0.00  0.00     0.083 A 
ENDBRANCH   1   2
BRANCH   1  13
HETATM   13  C   UNK N   1      27.929  52.875  40.785  0.00  0.00     0.180 C 
BRANCH  13  14
HETATM   14  C   UNK N   1      28.680  52.090  39.708  0.00  0.00     0.060 C 
BRANCH  14  15
HETATM   15  C   UNK N   1      28.343  52.553  38.302  0.00  0.00    -0.082 C 
HETATM   16  C   UNK N   1      29.096  53.441  37.603  0.00  0.00     0.002 C 
HETATM   17  C   UNK N   1      27.115  51.965  37.654  0.00  0.00     0.043 C 
BRANCH  16  18
HETATM   18  C   UNK N   1      30.346  54.074  38.115  0.00  0.00    -0.001 C 
HETATM   19  C   UNK N   1      30.489  55.379  38.458  0.00  0.00     0.010 C 
BRANCH  19  20
HETATM   20  C   UNK N   1      29.447  56.502  38.412  0.00  0.00     0.068 C 
HETATM   21  C   UNK N   1      29.180  56.961  36.962  0.00  0.00     0.050 C 
HETATM   22  C   UNK N   1      29.855  57.679  39.328  0.00  0.00     0.050 C 
BRANCH  20  23
HETATM   23  O   UNK N   1      28.248  55.957  38.920  0.00  0.00    -0.387 OA
HETATM   24  H   UNK N   1      27.481  56.411  38.479  0.00  0.00     0.211 HD
ENDBRANCH  20  23
ENDBRANCH  19  20
ENDBRANCH  16  18
ENDBRANCH  14  15
ENDBRANCH  13  14
ENDBRANCH   1  13
TORSDOF 7
ENDMDL
MODEL 8
REMARK VINA RESULT:      -5.3      2.601      4.255
REMARK  7 active torsions:
REMARK  status: ('A' for Active; 'I' for Inactive)
REMARK    1  A    between atoms: C_8  and  O_10 
REMARK    2  A    between atoms: O_10  and  C_11 
REMARK    3  A    between atoms: C_11  and  C_12 
REMARK    4  A    between atoms: C_12  and  C_13 
REMARK    5  A    between atoms: C_14  and  C_15 
REMARK    6  A    between atoms: C_16  and  C_17 
REMARK    7  A    between atoms: C_17  and  O_18 
ROOT
HETATM    1  O   UNK N   1      32.234  52.592  44.539  0.00  0.00    -0.351 OA
ENDROOT
BRANCH   1   2
HETATM    2  C   UNK N   1      32.893  51.462  44.161  0.00  0.00     0.071 A 
HETATM    3  C   UNK N   1      32.189  50.248  44.095  0.00  0.00     0.038 A 
HETATM    4  C   UNK N   1      32.839  49.066  43.714  0.00  0.00     0.017 A 
HETATM    5  C   UNK N   1      34.203  49.090  43.393  0.00  0.00    -0.002 A 
HETATM    6  C   UNK N   1      34.917  50.304  43.452  0.00  0.00     0.092 A 
HETATM    7  C   UNK N   1      34.888  47.931  43.012  0.00  0.00     0.020 A 
HETATM    8  O   UNK N   1      36.211  50.339  43.150  0.00  0.00    -0.275 OA
HETATM    9  C   UNK N   1      34.265  51.478  43.833  0.00  0.00     0.075 A 
HETATM   10  C   UNK N   1      36.890  49.253  42.785  0.00  0.00     0.288 A 
HETATM   11  O   UNK N   1      38.073  49.342  42.521  0.00  0.00    -0.260 OA
HETATM   12  C   UNK N   1      36.246  48.013  42.706  0.00  0.00     0.083 A 
ENDBRANCH   1   2
BRANCH   1  13
HETATM   13  C   UNK N   1      32.225  53.778  43.821  0.00  0.00     0.180 C 
BRANCH  13  14
HETATM   14  C   UNK N   1      30.803  54.129  43.378  0.00  0.00     0.060 C 
BRANCH  14  15
HETATM   15  C   UNK N   1      30.612  54.019  41.876  0.00  0.00    -0.082 C 
HETATM   16  C   UNK N   1      30.319  55.077  41.077  0.00  0.00     0.002 C 
HETATM   17  C   UNK N   1      30.785  52.657  41.253  0.00  0.00     0.043 C 
BRANCH  16  18
HETATM   18  C   UNK N   1      30.150  56.478  41.560  0.00  0.00    -0.001 C 
HETATM   19  C   UNK N   1      28.965  57.093  41.808  0.00  0.00     0.010 C 
BRANCH  19  20
HETATM   20  C   UNK N   1      27.546  56.533  41.662  0.00  0.00     0.068 C 
HETATM   21  C   UNK N   1      27.293  55.380  42.658  0.00  0.00     0.050 C 
HETATM   22  C   UNK N   1      27.262  56.111  40.202  0.00  0.00     0.050 C 
BRANCH  20  23
HETATM   23  O   UNK N   1      26.665  57.586  41.986  0.00  0.00    -0.387 OA
HETATM   24  H   UNK N   1      25.942  57.228  42.568  0.00  0.00     0.211 HD
ENDBRANCH  20  23
ENDBRANCH  19  20
ENDBRANCH  16  18
ENDBRANCH  14  15
ENDBRANCH  13  14
ENDBRANCH   1  13
TORSDOF 7
ENDMDL
MODEL 9
REMARK VINA RESULT:      -5.2     17.539     21.220
REMARK  7 active torsions:
REMARK  status: ('A' for Active; 'I' for Inactive)
REMARK    1  A    between atoms: C_8  and  O_10 
REMARK    2  A    between atoms: O_10  and  C_11 
REMARK    3  A    between atoms: C_11  and  C_12 
REMARK    4  A    between atoms: C_12  and  C_13 
REMARK    5  A    between atoms: C_14  and  C_15 
REMARK    6  A    between atoms: C_16  and  C_17 
REMARK    7  A    between atoms: C_17  and  O_18 
ROOT
HETATM    1  O   UNK N   1      30.730  43.844  60.551  0.00  0.00    -0.351 OA
ENDROOT
BRANCH   1   2
HETATM    2  C   UNK N   1      30.614  44.931  59.739  0.00  0.00     0.071 A 
HETATM    3  C   UNK N   1      31.012  44.827  58.395  0.00  0.00     0.038 A 
HETATM    4  C   UNK N   1      30.910  45.929  57.534  0.00  0.00     0.017 A 
HETATM    5  C   UNK N   1      30.405  47.146  58.012  0.00  0.00    -0.002 A 
HETATM    6  C   UNK N   1      29.999  47.259  59.358  0.00  0.00     0.092 A 
HETATM    7  C   UNK N   1      30.290  48.268  57.186  0.00  0.00     0.020 A 
HETATM    8  O   UNK N   1      29.519  48.408  59.822  0.00  0.00    -0.275 OA
HETATM    9  C   UNK N   1      30.104  46.158  60.211  0.00  0.00     0.075 A 
HETATM   10  C   UNK N   1      29.398  49.492  59.060  0.00  0.00     0.288 A 
HETATM   11  O   UNK N   1      28.955  50.519  59.538  0.00  0.00    -0.260 OA
HETATM   12  C   UNK N   1      29.783  49.455  57.715  0.00  0.00     0.083 A 
ENDBRANCH   1   2
BRANCH   1  13
HETATM   13  C   UNK N   1      31.584  43.760  61.641  0.00  0.00     0.180 C 
BRANCH  13  14
HETATM   14  C   UNK N   1      32.616  42.650  61.433  0.00  0.00     0.060 C 
BRANCH  14  15
HETATM   15  C   UNK N   1      33.861  43.132  60.712  0.00  0.00    -0.082 C 
HETATM   16  C   UNK N   1      34.849  43.844  61.312  0.00  0.00     0.002 C 
HETATM   17  C   UNK N   1      34.001  42.772  59.254  0.00  0.00     0.043 C 
BRANCH  16  18
HETATM   18  C   UNK N   1      34.847  44.241  62.751  0.00  0.00    -0.001 C 
HETATM   19  C   UNK N   1      35.824  44.943  63.379  0.00  0.00     0.010 C 
BRANCH  19  20
HETATM   20  C   UNK N   1      37.133  45.492  62.801  0.00  0.00     0.068 C 
HETATM   21  C   UNK N   1      38.171  45.753  63.914  0.00  0.00     0.050 C 
HETATM   22  C   UNK N   1      36.877  46.749  61.938  0.00  0.00     0.050 C 
BRANCH  20  23
HETATM   23  O   UNK N   1      37.650  44.487  61.956  0.00  0.00    -0.387 OA
HETATM   24  H   UNK N   1      36.896  43.927  61.628  0.00  0.00     0.211 HD
ENDBRANCH  20  23
ENDBRANCH  19  20
ENDBRANCH  16  18
ENDBRANCH  14  15
ENDBRANCH  13  14
ENDBRANCH   1  13
TORSDOF 7
ENDMDL
