MODEL 1
REMARK VINA RESULT:      -6.7      0.000      0.000
REMARK  8 active torsions:
REMARK  status: ('A' for Active; 'I' for Inactive)
REMARK    1  A    between atoms: C_8  and  O_10 
REMARK    2  A    between atoms: O_10  and  C_11 
REMARK    3  A    between atoms: C_11  and  C_12 
REMARK    4  A    between atoms: C_13  and  C_22 
REMARK    5  A    between atoms: C_14  and  C_15 
REMARK    6  A    between atoms: C_22  and  C_23 
REMARK    7  A    between atoms: C_23  and  C_24 
REMARK    8  A    between atoms: C_24  and  O_26 
ROOT
HETATM    1  C   UNK N   1      29.268  54.954  40.921  0.00  0.00     0.022 C 
HETATM    2  C   UNK N   1      27.781  55.384  40.786  0.00  0.00    -0.031 C 
HETATM    3  C   UNK N   1      27.213  54.223  39.911  0.00  0.00     0.017 C 
HETATM    4  C   UNK N   1      28.317  53.974  38.867  0.00  0.00     0.014 C 
HETATM    5  C   UNK N   1      29.645  54.434  39.512  0.00  0.00    -0.011 C 
HETATM    6  C   UNK N   1      30.732  53.356  39.534  0.00  0.00     0.010 C 
HETATM    7  C   UNK N   1      27.625  56.733  40.023  0.00  0.00     0.016 C 
ENDROOT
BRANCH   1   8
HETATM    8  C   UNK N   1      30.271  55.986  41.482  0.00  0.00     0.181 C 
BRANCH   8   9
HETATM    9  O   UNK N   1      30.435  55.788  42.839  0.00  0.00    -0.351 OA
BRANCH   9  10
HETATM   10  C   UNK N   1      31.259  54.876  43.407  0.00  0.00     0.071 A 
HETATM   11  C   UNK N   1      32.210  55.332  44.329  0.00  0.00     0.038 A 
HETATM   12  C   UNK N   1      33.143  54.452  44.880  0.00  0.00     0.017 A 
HETATM   13  C   UNK N   1      33.125  53.100  44.519  0.00  0.00    -0.002 A 
HETATM   14  C   UNK N   1      32.149  52.622  43.617  0.00  0.00     0.092 A 
HETATM   15  C   UNK N   1      34.068  52.201  45.022  0.00  0.00     0.020 A 
HETATM   16  O   UNK N   1      32.125  51.338  43.273  0.00  0.00    -0.275 OA
HETATM   17  C   UNK N   1      31.219  53.509  43.067  0.00  0.00     0.075 A 
HETATM   18  C   UNK N   1      33.010  50.457  43.741  0.00  0.00     0.288 A 
HETATM   19  O   UNK N   1      32.947  49.295  43.391  0.00  0.00    -0.260 OA
HETATM   20  C   UNK N   1      34.014  50.867  44.628  0.00  0.00     0.083 A 
ENDBRANCH   9  10
ENDBRANCH   8   9
ENDBRANCH   1   8
BRANCH   2  21
HETATM   21  C   UNK N   1      27.127  55.504  42.201  0.00  0.00     0.020 C 
BRANCH  21  22
HETATM   22  C   UNK N   1      26.563  56.890  42.558  0.00  0.00     0.111 C 
BRANCH  22  23
HETATM   23  C   UNK N   1      25.209  56.814  43.217  0.00  0.00     0.139 C 
HETATM   24  O   UNK N   1      24.181  56.879  42.556  0.00  0.00    -0.650 OA
BRANCH  23  25
HETATM   25  O   UNK N   1      25.136  56.661  44.556  0.00  0.00    -0.776 OA
HETATM   26  H   UNK N   1      24.282  56.564  45.001  0.00  0.00     0.167 HD
ENDBRANCH  23  25
ENDBRANCH  22  23
ENDBRANCH  21  22
ENDBRANCH   2  21
BRANCH   3  27
HETATM   27  C   UNK N   1      26.966  52.926  40.684  0.00  0.00    -0.019 C 
HETATM   28  C   UNK N   1      26.128  51.919  40.305  0.00  0.00    -0.091 C 
HETATM   29  C   UNK N   1      25.998  50.706  41.190  0.00  0.00     0.042 C 
HETATM   30  C   UNK N   1      25.290  51.908  39.041  0.00  0.00     0.042 C 
ENDBRANCH   3  27
TORSDOF 8
ENDMDL
MODEL 2
REMARK VINA RESULT:      -6.5     12.127     16.155
REMARK  8 active torsions:
REMARK  status: ('A' for Active; 'I' for Inactive)
REMARK    1  A    between atoms: C_8  and  O_10 
REMARK    2  A    between atoms: O_10  and  C_11 
REMARK    3  A    between atoms: C_11  and  C_12 
REMARK    4  A    between atoms: C_13  and  C_22 
REMARK    5  A    between atoms: C_14  and  C_15 
REMARK    6  A    between atoms: C_22  and  C_23 
REMARK    7  A    between atoms: C_23  and  C_24 
REMARK    8  A    between atoms: C_24  and  O_26 
ROOT
HETATM    1  C   UNK N   1      41.269  46.268  47.123  0.00  0.00     0.022 C 
HETATM    2  C   UNK N   1      39.737  46.135  46.909  0.00  0.00    -0.031 C 
HETATM    3  C   UNK N   1      39.334  47.630  46.701  0.00  0.00     0.017 C 
HETATM    4  C   UNK N   1      40.171  48.385  47.749  0.00  0.00     0.014 C 
HETATM    5  C   UNK N   1      41.423  47.521  48.021  0.00  0.00    -0.011 C 
HETATM    6  C   UNK N   1      42.747  48.259  47.810  0.00  0.00     0.010 C 
HETATM    7  C   UNK N   1      39.011  45.573  48.167  0.00  0.00     0.016 C 
ENDROOT
BRANCH   1   8
HETATM    8  C   UNK N   1      42.034  45.036  47.656  0.00  0.00     0.181 C 
BRANCH   8   9
HETATM    9  O   UNK N   1      42.679  45.360  48.834  0.00  0.00    -0.351 OA
BRANCH   9  10
HETATM   10  C   UNK N   1      42.186  45.166  50.080  0.00  0.00     0.071 A 
HETATM   11  C   UNK N   1      42.725  45.925  51.127  0.00  0.00     0.038 A 
HETATM   12  C   UNK N   1      42.319  45.706  52.444  0.00  0.00     0.017 A 
HETATM   13  C   UNK N   1      41.359  44.727  52.725  0.00  0.00    -0.002 A 
HETATM   14  C   UNK N   1      40.784  43.979  51.673  0.00  0.00     0.092 A 
HETATM   15  C   UNK N   1      40.958  44.457  54.035  0.00  0.00     0.020 A 
HETATM   16  O   UNK N   1      39.868  43.051  51.934  0.00  0.00    -0.275 OA
HETATM   17  C   UNK N   1      41.196  44.202  50.356  0.00  0.00     0.075 A 
HETATM   18  C   UNK N   1      39.465  42.774  53.174  0.00  0.00     0.288 A 
HETATM   19  O   UNK N   1      38.628  41.911  53.358  0.00  0.00    -0.260 OA
HETATM   20  C   UNK N   1      40.005  43.468  54.264  0.00  0.00     0.083 A 
ENDBRANCH   9  10
ENDBRANCH   8   9
ENDBRANCH   1   8
BRANCH   2  21
HETATM   21  C   UNK N   1      39.445  45.213  45.681  0.00  0.00     0.020 C 
BRANCH  21  22
HETATM   22  C   UNK N   1      40.203  43.874  45.659  0.00  0.00     0.111 C 
BRANCH  22  23
HETATM   23  C   UNK N   1      41.360  43.879  44.692  0.00  0.00     0.139 C 
HETATM   24  O   UNK N   1      42.043  42.878  44.522  0.00  0.00    -0.650 OA
BRANCH  23  25
HETATM   25  O   UNK N   1      41.636  45.004  44.001  0.00  0.00    -0.776 OA
HETATM   26  H   UNK N   1      41.205  45.187  43.154  0.00  0.00     0.167 HD
ENDBRANCH  23  25
ENDBRANCH  22  23
ENDBRANCH  21  22
ENDBRANCH   2  21
BRANCH   3  27
HETATM   27  C   UNK N   1      39.674  48.176  45.313  0.00  0.00    -0.019 C 
HETATM   28  C   UNK N   1      39.340  49.411  44.838  0.00  0.00    -0.091 C 
HETATM   29  C   UNK N   1      39.751  49.791  43.439  0.00  0.00     0.042 C 
HETATM   30  C   UNK N   1      38.569  50.465  45.610  0.00  0.00     0.042 C 
ENDBRANCH   3  27
TORSDOF 8
ENDMDL
MODEL 3
REMARK VINA RESULT:      -6.4     18.465     22.114
REMARK  8 active torsions:
REMARK  status: ('A' for Active; 'I' for Inactive)
REMARK    1  A    between atoms: C_8  and  O_10 
REMARK    2  A    between atoms: O_10  and  C_11 
REMARK    3  A    between atoms: C_11  and  C_12 
REMARK    4  A    between atoms: C_13  and  C_22 
REMARK    5  A    between atoms: C_14  and  C_15 
REMARK    6  A    between atoms: C_22  and  C_23 
REMARK    7  A    between atoms: C_23  and  C_24 
REMARK    8  A    between atoms: C_24  and  O_26 
ROOT
HETATM    1  C   UNK N   1      30.936  44.774  62.626  0.00  0.00     0.022 C 
HETATM    2  C   UNK N   1      31.220  43.608  61.639  0.00  0.00    -0.031 C 
HETATM    3  C   UNK N   1      30.210  43.934  60.494  0.00  0.00     0.017 C 
HETATM    4  C   UNK N   1      28.937  44.370  61.239  0.00  0.00     0.014 C 
HETATM    5  C   UNK N   1      29.394  44.921  62.609  0.00  0.00    -0.011 C 
HETATM    6  C   UNK N   1      28.918  46.347  62.898  0.00  0.00     0.010 C 
HETATM    7  C   UNK N   1      30.877  42.219  62.253  0.00  0.00     0.016 C 
ENDROOT
BRANCH   1   8
HETATM    8  C   UNK N   1      31.527  44.676  64.049  0.00  0.00     0.181 C 
BRANCH   8   9
HETATM    9  O   UNK N   1      32.058  45.897  64.418  0.00  0.00    -0.351 OA
BRANCH   9  10
HETATM   10  C   UNK N   1      33.268  46.375  64.041  0.00  0.00     0.071 A 
HETATM   11  C   UNK N   1      33.406  47.760  63.877  0.00  0.00     0.038 A 
HETATM   12  C   UNK N   1      34.603  48.302  63.404  0.00  0.00     0.017 A 
HETATM   13  C   UNK N   1      35.679  47.460  63.101  0.00  0.00    -0.002 A 
HETATM   14  C   UNK N   1      35.562  46.066  63.296  0.00  0.00     0.092 A 
HETATM   15  C   UNK N   1      36.877  47.966  62.592  0.00  0.00     0.020 A 
HETATM   16  O   UNK N   1      36.583  45.262  63.013  0.00  0.00    -0.275 OA
HETATM   17  C   UNK N   1      34.360  45.529  63.767  0.00  0.00     0.075 A 
HETATM   18  C   UNK N   1      37.738  45.718  62.529  0.00  0.00     0.288 A 
HETATM   19  O   UNK N   1      38.638  44.939  62.282  0.00  0.00    -0.260 OA
HETATM   20  C   UNK N   1      37.916  47.088  62.298  0.00  0.00     0.083 A 
ENDBRANCH   9  10
ENDBRANCH   8   9
ENDBRANCH   1   8
BRANCH   2  21
HETATM   21  C   UNK N   1      32.721  43.630  61.200  0.00  0.00     0.020 C 
BRANCH  21  22
HETATM   22  C   UNK N   1      33.169  42.464  60.303  0.00  0.00     0.111 C 
BRANCH  22  23
HETATM   23  C   UNK N   1      33.807  42.932  59.019  0.00  0.00     0.139 C 
HETATM   24  O   UNK N   1      33.181  42.934  57.968  0.00  0.00    -0.650 OA
BRANCH  23  25
HETATM   25  O   UNK N   1      35.086  43.362  59.038  0.00  0.00    -0.776 OA
HETATM   26  H   UNK N   1      35.296  44.295  59.181  0.00  0.00     0.167 HD
ENDBRANCH  23  25
ENDBRANCH  22  23
ENDBRANCH  21  22
ENDBRANCH   2  21
BRANCH   3  27
HETATM   27  C   UNK N   1      30.658  45.073  59.576  0.00  0.00    -0.019 C 
HETATM   28  C   UNK N   1      30.496  45.117  58.223  0.00  0.00    -0.091 C 
HETATM   29  C   UNK N   1      31.002  46.318  57.466  0.00  0.00     0.042 C 
HETATM   30  C   UNK N   1      29.837  44.037  57.385  0.00  0.00     0.042 C 
ENDBRANCH   3  27
TORSDOF 8
ENDMDL
MODEL 4
REMARK VINA RESULT:      -6.2      2.675      4.633
REMARK  8 active torsions:
REMARK  status: ('A' for Active; 'I' for Inactive)
REMARK    1  A    between atoms: C_8  and  O_10 
REMARK    2  A    between atoms: O_10  and  C_11 
REMARK    3  A    between atoms: C_11  and  C_12 
REMARK    4  A    between atoms: C_13  and  C_22 
REMARK    5  A    between atoms: C_14  and  C_15 
REMARK    6  A    between atoms: C_22  and  C_23 
REMARK    7  A    between atoms: C_23  and  C_24 
REMARK    8  A    between atoms: C_24  and  O_26 
ROOT
HETATM    1  C   UNK N   1      28.998  54.658  39.747  0.00  0.00     0.022 C 
HETATM    2  C   UNK N   1      29.712  55.599  40.756  0.00  0.00    -0.031 C 
HETATM    3  C   UNK N   1      28.753  56.831  40.745  0.00  0.00     0.017 C 
HETATM    4  C   UNK N   1      28.384  56.997  39.261  0.00  0.00     0.014 C 
HETATM    5  C   UNK N   1      28.530  55.602  38.611  0.00  0.00    -0.011 C 
HETATM    6  C   UNK N   1      27.267  55.112  37.898  0.00  0.00     0.010 C 
HETATM    7  C   UNK N   1      31.122  56.034  40.261  0.00  0.00     0.016 C 
ENDROOT
BRANCH   1   8
HETATM    8  C   UNK N   1      29.772  53.423  39.237  0.00  0.00     0.181 C 
BRANCH   8   9
HETATM    9  O   UNK N   1      29.375  52.301  39.938  0.00  0.00    -0.351 OA
BRANCH   9  10
HETATM   10  C   UNK N   1      30.196  51.468  40.620  0.00  0.00     0.071 A 
HETATM   11  C   UNK N   1      29.994  50.088  40.485  0.00  0.00     0.038 A 
HETATM   12  C   UNK N   1      30.752  49.183  41.231  0.00  0.00     0.017 A 
HETATM   13  C   UNK N   1      31.730  49.654  42.114  0.00  0.00    -0.002 A 
HETATM   14  C   UNK N   1      31.966  51.042  42.233  0.00  0.00     0.092 A 
HETATM   15  C   UNK N   1      32.479  48.778  42.902  0.00  0.00     0.020 A 
HETATM   16  O   UNK N   1      32.897  51.494  43.068  0.00  0.00    -0.275 OA
HETATM   17  C   UNK N   1      31.202  51.943  41.485  0.00  0.00     0.075 A 
HETATM   18  C   UNK N   1      33.629  50.681  43.829  0.00  0.00     0.288 A 
HETATM   19  O   UNK N   1      34.463  51.147  44.581  0.00  0.00    -0.260 OA
HETATM   20  C   UNK N   1      33.436  49.295  43.772  0.00  0.00     0.083 A 
ENDBRANCH   9  10
ENDBRANCH   8   9
ENDBRANCH   1   8
BRANCH   2  21
HETATM   21  C   UNK N   1      29.840  54.895  42.147  0.00  0.00     0.020 C 
BRANCH  21  22
HETATM   22  C   UNK N   1      30.551  55.709  43.242  0.00  0.00     0.111 C 
BRANCH  22  23
HETATM   23  C   UNK N   1      31.576  54.898  43.993  0.00  0.00     0.139 C 
HETATM   24  O   UNK N   1      32.706  55.329  44.182  0.00  0.00    -0.650 OA
BRANCH  23  25
HETATM   25  O   UNK N   1      31.234  53.683  44.470  0.00  0.00    -0.776 OA
HETATM   26  H   UNK N   1      30.768  53.042  43.915  0.00  0.00     0.167 HD
ENDBRANCH  23  25
ENDBRANCH  22  23
ENDBRANCH  21  22
ENDBRANCH   2  21
BRANCH   3  27
HETATM   27  C   UNK N   1      27.469  56.626  41.552  0.00  0.00    -0.019 C 
HETATM   28  C   UNK N   1      26.795  57.594  42.237  0.00  0.00    -0.091 C 
HETATM   29  C   UNK N   1      25.542  57.219  42.987  0.00  0.00     0.042 C 
HETATM   30  C   UNK N   1      27.202  59.053  42.318  0.00  0.00     0.042 C 
ENDBRANCH   3  27
TORSDOF 8
ENDMDL
MODEL 5
REMARK VINA RESULT:      -6.1      1.574      2.058
REMARK  8 active torsions:
REMARK  status: ('A' for Active; 'I' for Inactive)
REMARK    1  A    between atoms: C_8  and  O_10 
REMARK    2  A    between atoms: O_10  and  C_11 
REMARK    3  A    between atoms: C_11  and  C_12 
REMARK    4  A    between atoms: C_13  and  C_22 
REMARK    5  A    between atoms: C_14  and  C_15 
REMARK    6  A    between atoms: C_22  and  C_23 
REMARK    7  A    between atoms: C_23  and  C_24 
REMARK    8  A    between atoms: C_24  and  O_26 
ROOT
HETATM    1  C   UNK N   1      29.587  55.224  39.848  0.00  0.00     0.022 C 
HETATM    2  C   UNK N   1      28.629  56.015  38.916  0.00  0.00    -0.031 C 
HETATM    3  C   UNK N   1      28.392  54.972  37.778  0.00  0.00     0.017 C 
HETATM    4  C   UNK N   1      29.783  54.355  37.548  0.00  0.00     0.014 C 
HETATM    5  C   UNK N   1      30.557  54.505  38.878  0.00  0.00    -0.011 C 
HETATM    6  C   UNK N   1      31.103  53.186  39.433  0.00  0.00     0.010 C 
HETATM    7  C   UNK N   1      29.302  57.287  38.322  0.00  0.00     0.016 C 
ENDROOT
BRANCH   1   8
HETATM    8  C   UNK N   1      30.308  56.001  40.971  0.00  0.00     0.181 C 
BRANCH   8   9
HETATM    9  O   UNK N   1      30.039  55.414  42.193  0.00  0.00    -0.351 OA
BRANCH   9  10
HETATM   10  C   UNK N   1      30.920  54.701  42.934  0.00  0.00     0.071 A 
HETATM   11  C   UNK N   1      31.708  55.392  43.864  0.00  0.00     0.038 A 
HETATM   12  C   UNK N   1      32.693  54.724  44.594  0.00  0.00     0.017 A 
HETATM   13  C   UNK N   1      32.892  53.351  44.405  0.00  0.00    -0.002 A 
HETATM   14  C   UNK N   1      32.080  52.639  43.495  0.00  0.00     0.092 A 
HETATM   15  C   UNK N   1      33.894  52.661  45.090  0.00  0.00     0.020 A 
HETATM   16  O   UNK N   1      32.262  51.334  43.314  0.00  0.00    -0.275 OA
HETATM   17  C   UNK N   1      31.096  53.314  42.765  0.00  0.00     0.075 A 
HETATM   18  C   UNK N   1      33.207  50.649  43.958  0.00  0.00     0.288 A 
HETATM   19  O   UNK N   1      33.335  49.458  43.752  0.00  0.00    -0.260 OA
HETATM   20  C   UNK N   1      34.057  51.298  44.863  0.00  0.00     0.083 A 
ENDBRANCH   9  10
ENDBRANCH   8   9
ENDBRANCH   1   8
BRANCH   2  21
HETATM   21  C   UNK N   1      27.336  56.422  39.696  0.00  0.00     0.020 C 
BRANCH  21  22
HETATM   22  C   UNK N   1      27.216  55.860  41.123  0.00  0.00     0.111 C 
BRANCH  22  23
HETATM   23  C   UNK N   1      26.165  54.785  41.237  0.00  0.00     0.139 C 
HETATM   24  O   UNK N   1      26.446  53.670  41.655  0.00  0.00    -0.650 OA
BRANCH  23  25
HETATM   25  O   UNK N   1      24.895  55.066  40.880  0.00  0.00    -0.776 OA
HETATM   26  H   UNK N   1      24.700  55.759  40.233  0.00  0.00     0.167 HD
ENDBRANCH  23  25
ENDBRANCH  22  23
ENDBRANCH  21  22
ENDBRANCH   2  21
BRANCH   3  27
HETATM   27  C   UNK N   1      27.415  53.856  38.152  0.00  0.00    -0.019 C 
HETATM   28  C   UNK N   1      26.126  53.747  37.721  0.00  0.00    -0.091 C 
HETATM   29  C   UNK N   1      25.294  52.582  38.192  0.00  0.00     0.042 C 
HETATM   30  C   UNK N   1      25.431  54.720  36.787  0.00  0.00     0.042 C 
ENDBRANCH   3  27
TORSDOF 8
ENDMDL
MODEL 6
REMARK VINA RESULT:      -5.8     15.993     19.676
REMARK  8 active torsions:
REMARK  status: ('A' for Active; 'I' for Inactive)
REMARK    1  A    between atoms: C_8  and  O_10 
REMARK    2  A    between atoms: O_10  and  C_11 
REMARK    3  A    between atoms: C_11  and  C_12 
REMARK    4  A    between atoms: C_13  and  C_22 
REMARK    5  A    between atoms: C_14  and  C_15 
REMARK    6  A    between atoms: C_22  and  C_23 
REMARK    7  A    between atoms: C_23  and  C_24 
REMARK    8  A    between atoms: C_24  and  O_26 
ROOT
HETATM    1  C   UNK N   1      29.407  43.419  59.028  0.00  0.00     0.022 C 
HETATM    2  C   UNK N   1      30.312  42.158  58.975  0.00  0.00    -0.031 C 
HETATM    3  C   UNK N   1      29.634  41.353  57.822  0.00  0.00     0.017 C 
HETATM    4  C   UNK N   1      28.128  41.535  58.081  0.00  0.00     0.014 C 
HETATM    5  C   UNK N   1      27.971  42.867  58.850  0.00  0.00    -0.011 C 
HETATM    6  C   UNK N   1      27.016  43.861  58.183  0.00  0.00     0.010 C 
HETATM    7  C   UNK N   1      30.248  41.330  60.293  0.00  0.00     0.016 C 
ENDROOT
BRANCH   1   8
HETATM    8  C   UNK N   1      29.553  44.364  60.242  0.00  0.00     0.181 C 
BRANCH   8   9
HETATM    9  O   UNK N   1      30.492  45.338  59.964  0.00  0.00    -0.351 OA
BRANCH   9  10
HETATM   10  C   UNK N   1      30.304  46.403  59.148  0.00  0.00     0.071 A 
HETATM   11  C   UNK N   1      30.807  46.329  57.843  0.00  0.00     0.038 A 
HETATM   12  C   UNK N   1      30.721  47.428  56.986  0.00  0.00     0.017 A 
HETATM   13  C   UNK N   1      30.118  48.611  57.428  0.00  0.00    -0.002 A 
HETATM   14  C   UNK N   1      29.576  48.685  58.730  0.00  0.00     0.092 A 
HETATM   15  C   UNK N   1      30.049  49.740  56.609  0.00  0.00     0.020 A 
HETATM   16  O   UNK N   1      28.999  49.806  59.153  0.00  0.00    -0.275 OA
HETATM   17  C   UNK N   1      29.668  47.582  59.584  0.00  0.00     0.075 A 
HETATM   18  C   UNK N   1      28.916  50.897  58.392  0.00  0.00     0.288 A 
HETATM   19  O   UNK N   1      28.382  51.898  58.829  0.00  0.00    -0.260 OA
HETATM   20  C   UNK N   1      29.446  50.897  57.096  0.00  0.00     0.083 A 
ENDBRANCH   9  10
ENDBRANCH   8   9
ENDBRANCH   1   8
BRANCH   2  21
HETATM   21  C   UNK N   1      31.792  42.572  58.689  0.00  0.00     0.020 C 
BRANCH  21  22
HETATM   22  C   UNK N   1      32.847  41.964  59.629  0.00  0.00     0.111 C 
BRANCH  22  23
HETATM   23  C   UNK N   1      34.004  42.897  59.883  0.00  0.00     0.139 C 
HETATM   24  O   UNK N   1      34.236  43.322  61.006  0.00  0.00    -0.650 OA
BRANCH  23  25
HETATM   25  O   UNK N   1      34.798  43.256  58.853  0.00  0.00    -0.776 OA
HETATM   26  H   UNK N   1      35.761  43.211  58.926  0.00  0.00     0.167 HD
ENDBRANCH  23  25
ENDBRANCH  22  23
ENDBRANCH  21  22
ENDBRANCH   2  21
BRANCH   3  27
HETATM   27  C   UNK N   1      29.959  41.879  56.423  0.00  0.00    -0.019 C 
HETATM   28  C   UNK N   1      29.970  41.142  55.276  0.00  0.00    -0.091 C 
HETATM   29  C   UNK N   1      30.318  41.819  53.975  0.00  0.00     0.042 C 
HETATM   30  C   UNK N   1      29.658  39.660  55.186  0.00  0.00     0.042 C 
ENDBRANCH   3  27
TORSDOF 8
ENDMDL
MODEL 7
REMARK VINA RESULT:      -5.8     17.647     20.915
REMARK  8 active torsions:
REMARK  status: ('A' for Active; 'I' for Inactive)
REMARK    1  A    between atoms: C_8  and  O_10 
REMARK    2  A    between atoms: O_10  and  C_11 
REMARK    3  A    between atoms: C_11  and  C_12 
REMARK    4  A    between atoms: C_13  and  C_22 
REMARK    5  A    between atoms: C_14  and  C_15 
REMARK    6  A    between atoms: C_22  and  C_23 
REMARK    7  A    between atoms: C_23  and  C_24 
REMARK    8  A    between atoms: C_24  and  O_26 
ROOT
HETATM    1  C   UNK N   1      30.525  46.792  61.892  0.00  0.00     0.022 C 
HETATM    2  C   UNK N   1      29.973  45.796  60.835  0.00  0.00    -0.031 C 
HETATM    3  C   UNK N   1      29.115  46.751  59.946  0.00  0.00     0.017 C 
HETATM    4  C   UNK N   1      28.418  47.673  60.961  0.00  0.00     0.014 C 
HETATM    5  C   UNK N   1      29.322  47.713  62.214  0.00  0.00    -0.011 C 
HETATM    6  C   UNK N   1      29.736  49.125  62.638  0.00  0.00     0.010 C 
HETATM    7  C   UNK N   1      29.052  44.713  61.471  0.00  0.00     0.016 C 
ENDROOT
BRANCH   1   8
HETATM    8  C   UNK N   1      31.203  46.208  63.151  0.00  0.00     0.181 C 
BRANCH   8   9
HETATM    9  O   UNK N   1      31.979  47.179  63.755  0.00  0.00    -0.351 OA
BRANCH   9  10
HETATM   10  C   UNK N   1      33.309  47.351  63.570  0.00  0.00     0.071 A 
HETATM   11  C   UNK N   1      33.812  48.659  63.583  0.00  0.00     0.038 A 
HETATM   12  C   UNK N   1      35.159  48.904  63.310  0.00  0.00     0.017 A 
HETATM   13  C   UNK N   1      36.020  47.836  63.033  0.00  0.00    -0.002 A 
HETATM   14  C   UNK N   1      35.532  46.511  63.052  0.00  0.00     0.092 A 
HETATM   15  C   UNK N   1      37.364  48.050  62.720  0.00  0.00     0.020 A 
HETATM   16  O   UNK N   1      36.347  45.493  62.792  0.00  0.00    -0.275 OA
HETATM   17  C   UNK N   1      34.181  46.272  63.323  0.00  0.00     0.075 A 
HETATM   18  C   UNK N   1      37.634  45.667  62.494  0.00  0.00     0.288 A 
HETATM   19  O   UNK N   1      38.335  44.701  62.259  0.00  0.00    -0.260 OA
HETATM   20  C   UNK N   1      38.180  46.956  62.443  0.00  0.00     0.083 A 
ENDBRANCH   9  10
ENDBRANCH   8   9
ENDBRANCH   1   8
BRANCH   2  21
HETATM   21  C   UNK N   1      31.155  45.103  60.083  0.00  0.00     0.020 C 
BRANCH  21  22
HETATM   22  C   UNK N   1      30.762  44.271  58.849  0.00  0.00     0.111 C 
BRANCH  22  23
HETATM   23  C   UNK N   1      31.781  44.359  57.742  0.00  0.00     0.139 C 
HETATM   24  O   UNK N   1      32.436  43.381  57.408  0.00  0.00    -0.650 OA
BRANCH  23  25
HETATM   25  O   UNK N   1      31.963  45.536  57.106  0.00  0.00    -0.776 OA
HETATM   26  H   UNK N   1      31.960  46.372  57.593  0.00  0.00     0.167 HD
ENDBRANCH  23  25
ENDBRANCH  22  23
ENDBRANCH  21  22
ENDBRANCH   2  21
BRANCH   3  27
HETATM   27  C   UNK N   1      29.939  47.610  58.985  0.00  0.00    -0.019 C 
HETATM   28  C   UNK N   1      29.479  48.188  57.838  0.00  0.00    -0.091 C 
HETATM   29  C   UNK N   1      30.429  49.004  56.999  0.00  0.00     0.042 C 
HETATM   30  C   UNK N   1      28.060  48.079  57.312  0.00  0.00     0.042 C 
ENDBRANCH   3  27
TORSDOF 8
ENDMDL
MODEL 8
REMARK VINA RESULT:      -5.8     16.217     20.271
REMARK  8 active torsions:
REMARK  status: ('A' for Active; 'I' for Inactive)
REMARK    1  A    between atoms: C_8  and  O_10 
REMARK    2  A    between atoms: O_10  and  C_11 
REMARK    3  A    between atoms: C_11  and  C_12 
REMARK    4  A    between atoms: C_13  and  C_22 
REMARK    5  A    between atoms: C_14  and  C_15 
REMARK    6  A    between atoms: C_22  and  C_23 
REMARK    7  A    between atoms: C_23  and  C_24 
REMARK    8  A    between atoms: C_24  and  O_26 
ROOT
HETATM    1  C   UNK N   1      29.704  40.026  58.499  0.00  0.00     0.022 C 
HETATM    2  C   UNK N   1      29.520  41.508  58.925  0.00  0.00    -0.031 C 
HETATM    3  C   UNK N   1      30.362  41.547  60.240  0.00  0.00     0.017 C 
HETATM    4  C   UNK N   1      30.016  40.219  60.937  0.00  0.00     0.014 C 
HETATM    5  C   UNK N   1      29.600  39.231  59.824  0.00  0.00    -0.011 C 
HETATM    6  C   UNK N   1      30.405  37.929  59.815  0.00  0.00     0.010 C 
HETATM    7  C   UNK N   1      28.036  41.848  59.250  0.00  0.00     0.016 C 
ENDROOT
BRANCH   1   8
HETATM    8  C   UNK N   1      28.790  39.476  57.382  0.00  0.00     0.181 C 
BRANCH   8   9
HETATM    9  O   UNK N   1      29.504  39.372  56.203  0.00  0.00    -0.351 OA
BRANCH   9  10
HETATM   10  C   UNK N   1      29.328  40.144  55.105  0.00  0.00     0.071 A 
HETATM   11  C   UNK N   1      30.369  41.002  54.729  0.00  0.00     0.038 A 
HETATM   12  C   UNK N   1      30.210  41.884  53.659  0.00  0.00     0.017 A 
HETATM   13  C   UNK N   1      29.005  41.907  52.946  0.00  0.00    -0.002 A 
HETATM   14  C   UNK N   1      27.961  41.022  53.295  0.00  0.00     0.092 A 
HETATM   15  C   UNK N   1      28.800  42.803  51.895  0.00  0.00     0.020 A 
HETATM   16  O   UNK N   1      26.816  41.038  52.619  0.00  0.00    -0.275 OA
HETATM   17  C   UNK N   1      28.126  40.143  54.370  0.00  0.00     0.075 A 
HETATM   18  C   UNK N   1      26.594  41.879  51.609  0.00  0.00     0.288 A 
HETATM   19  O   UNK N   1      25.527  41.855  51.028  0.00  0.00    -0.260 OA
HETATM   20  C   UNK N   1      27.582  42.794  51.222  0.00  0.00     0.083 A 
ENDBRANCH   9  10
ENDBRANCH   8   9
ENDBRANCH   1   8
BRANCH   2  21
HETATM   21  C   UNK N   1      30.041  42.459  57.799  0.00  0.00     0.020 C 
BRANCH  21  22
HETATM   22  C   UNK N   1      30.023  43.961  58.135  0.00  0.00     0.111 C 
BRANCH  22  23
HETATM   23  C   UNK N   1      31.232  44.688  57.603  0.00  0.00     0.139 C 
HETATM   24  O   UNK N   1      32.252  44.082  57.306  0.00  0.00    -0.650 OA
BRANCH  23  25
HETATM   25  O   UNK N   1      31.178  46.027  57.445  0.00  0.00    -0.776 OA
HETATM   26  H   UNK N   1      30.504  46.437  56.885  0.00  0.00     0.167 HD
ENDBRANCH  23  25
ENDBRANCH  22  23
ENDBRANCH  21  22
ENDBRANCH   2  21
BRANCH   3  27
HETATM   27  C   UNK N   1      31.873  41.602  60.008  0.00  0.00    -0.019 C 
HETATM   28  C   UNK N   1      32.714  42.575  60.461  0.00  0.00    -0.091 C 
HETATM   29  C   UNK N   1      34.183  42.480  60.138  0.00  0.00     0.042 C 
HETATM   30  C   UNK N   1      32.295  43.780  61.283  0.00  0.00     0.042 C 
ENDBRANCH   3  27
TORSDOF 8
ENDMDL
MODEL 9
REMARK VINA RESULT:      -5.6     18.373     21.887
REMARK  8 active torsions:
REMARK  status: ('A' for Active; 'I' for Inactive)
REMARK    1  A    between atoms: C_8  and  O_10 
REMARK    2  A    between atoms: O_10  and  C_11 
REMARK    3  A    between atoms: C_11  and  C_12 
REMARK    4  A    between atoms: C_13  and  C_22 
REMARK    5  A    between atoms: C_14  and  C_15 
REMARK    6  A    between atoms: C_22  and  C_23 
REMARK    7  A    between atoms: C_23  and  C_24 
REMARK    8  A    between atoms: C_24  and  O_26 
ROOT
HETATM    1  C   UNK N   1      30.860  42.109  61.401  0.00  0.00     0.022 C 
HETATM    2  C   UNK N   1      31.691  41.936  60.101  0.00  0.00    -0.031 C 
HETATM    3  C   UNK N   1      30.677  41.162  59.200  0.00  0.00     0.017 C 
HETATM    4  C   UNK N   1      30.034  40.145  60.159  0.00  0.00     0.014 C 
HETATM    5  C   UNK N   1      30.139  40.750  61.578  0.00  0.00    -0.011 C 
HETATM    6  C   UNK N   1      28.797  40.864  62.306  0.00  0.00     0.010 C 
HETATM    7  C   UNK N   1      32.959  41.061  60.324  0.00  0.00     0.016 C 
ENDROOT
BRANCH   1   8
HETATM    8  C   UNK N   1      31.598  42.580  62.674  0.00  0.00     0.181 C 
BRANCH   8   9
HETATM    9  O   UNK N   1      31.659  43.961  62.693  0.00  0.00    -0.351 OA
BRANCH   9  10
HETATM   10  C   UNK N   1      32.781  44.696  62.877  0.00  0.00     0.071 A 
HETATM   11  C   UNK N   1      32.637  46.019  63.314  0.00  0.00     0.038 A 
HETATM   12  C   UNK N   1      33.751  46.852  63.436  0.00  0.00     0.017 A 
HETATM   13  C   UNK N   1      35.025  46.360  63.131  0.00  0.00    -0.002 A 
HETATM   14  C   UNK N   1      35.187  45.018  62.723  0.00  0.00     0.092 A 
HETATM   15  C   UNK N   1      36.156  47.177  63.206  0.00  0.00     0.020 A 
HETATM   16  O   UNK N   1      36.396  44.546  62.435  0.00  0.00    -0.275 OA
HETATM   17  C   UNK N   1      34.066  44.190  62.600  0.00  0.00     0.075 A 
HETATM   18  C   UNK N   1      37.492  45.301  62.502  0.00  0.00     0.288 A 
HETATM   19  O   UNK N   1      38.573  44.821  62.223  0.00  0.00    -0.260 OA
HETATM   20  C   UNK N   1      37.401  46.645  62.885  0.00  0.00     0.083 A 
ENDBRANCH   9  10
ENDBRANCH   8   9
ENDBRANCH   1   8
BRANCH   2  21
HETATM   21  C   UNK N   1      32.111  43.335  59.543  0.00  0.00     0.020 C 
BRANCH  21  22
HETATM   22  C   UNK N   1      33.092  43.311  58.358  0.00  0.00     0.111 C 
BRANCH  22  23
HETATM   23  C   UNK N   1      32.487  43.864  57.092  0.00  0.00     0.139 C 
HETATM   24  O   UNK N   1      32.226  43.134  56.147  0.00  0.00    -0.650 OA
BRANCH  23  25
HETATM   25  O   UNK N   1      32.224  45.185  57.012  0.00  0.00    -0.776 OA
HETATM   26  H   UNK N   1      31.809  45.657  57.747  0.00  0.00     0.167 HD
ENDBRANCH  23  25
ENDBRANCH  22  23
ENDBRANCH  21  22
ENDBRANCH   2  21
BRANCH   3  27
HETATM   27  C   UNK N   1      29.576  42.043  58.606  0.00  0.00    -0.019 C 
HETATM   28  C   UNK N   1      29.081  41.954  57.338  0.00  0.00    -0.091 C 
HETATM   29  C   UNK N   1      27.994  42.907  56.911  0.00  0.00     0.042 C 
HETATM   30  C   UNK N   1      29.537  40.958  56.289  0.00  0.00     0.042 C 
ENDBRANCH   3  27
TORSDOF 8
ENDMDL
