MODEL 1
REMARK VINA RESULT:      -7.4      0.000      0.000
REMARK  4 active torsions:
REMARK  status: ('A' for Active; 'I' for Inactive)
REMARK    1  A    between atoms: C_8  and  O_10 
REMARK    2  A    between atoms: O_10  and  C_11 
REMARK    3  A    between atoms: C_11  and  C_12 
REMARK    4  A    between atoms: C_16  and  O_17 
ROOT
HETATM    1  C   UNK N   1      41.164  46.006  49.059  0.00  0.00     0.047 C 
HETATM    2  C   UNK N   1      41.120  44.680  49.944  0.00  0.00    -0.030 C 
HETATM    3  C   UNK N   1      41.479  45.103  51.412  0.00  0.00     0.008 C 
HETATM    4  C   UNK N   1      41.153  44.073  52.582  0.00  0.00    -0.017 C 
HETATM    5  C   UNK N   1      39.695  43.540  52.391  0.00  0.00     0.126 C 
HETATM    6  C   UNK N   1      39.456  42.995  50.973  0.00  0.00     0.033 C 
HETATM    7  C   UNK N   1      39.672  44.102  49.935  0.00  0.00     0.013 C 
HETATM    8  C   UNK N   1      42.145  42.882  52.708  0.00  0.00     0.018 C 
HETATM    9  C   UNK N   1      41.214  44.829  53.939  0.00  0.00     0.018 C 
HETATM   10  C   UNK N   1      42.928  45.647  51.461  0.00  0.00     0.033 C 
HETATM   11  C   UNK N   1      43.223  46.649  50.385  0.00  0.00    -0.023 C 
HETATM   12  C   UNK N   1      42.432  46.856  49.311  0.00  0.00    -0.081 C 
HETATM   13  C   UNK N   1      42.792  48.003  48.390  0.00  0.00     0.043 C 
HETATM   14  C   UNK N   1      42.101  43.620  49.355  0.00  0.00     0.016 C 
ENDROOT
BRANCH   1  15
HETATM   15  C   UNK N   1      40.928  45.715  47.551  0.00  0.00     0.185 C 
BRANCH  15  16
HETATM   16  O   UNK N   1      39.819  46.387  47.076  0.00  0.00    -0.350 OA
BRANCH  16  17
HETATM   17  C   UNK N   1      39.856  47.415  46.191  0.00  0.00     0.071 A 
HETATM   18  C   UNK N   1      40.868  48.376  46.322  0.00  0.00     0.038 A 
HETATM   19  C   UNK N   1      40.944  49.453  45.434  0.00  0.00     0.017 A 
HETATM   20  C   UNK N   1      39.999  49.580  44.407  0.00  0.00    -0.002 A 
HETATM   21  C   UNK N   1      38.981  48.614  44.264  0.00  0.00     0.092 A 
HETATM   22  C   UNK N   1      40.034  50.650  43.510  0.00  0.00     0.020 A 
HETATM   23  O   UNK N   1      38.078  48.727  43.294  0.00  0.00    -0.275 OA
HETATM   24  C   UNK N   1      38.915  47.537  45.148  0.00  0.00     0.075 A 
HETATM   25  C   UNK N   1      38.084  49.739  42.427  0.00  0.00     0.288 A 
HETATM   26  O   UNK N   1      37.232  49.796  41.563  0.00  0.00    -0.260 OA
HETATM   27  C   UNK N   1      39.065  50.734  42.511  0.00  0.00     0.083 A 
ENDBRANCH  16  17
ENDBRANCH  15  16
ENDBRANCH   1  15
BRANCH   5  28
HETATM   28  O   UNK N   1      39.392  42.523  53.314  0.00  0.00    -0.395 OA
HETATM   29  H   UNK N   1      40.123  41.854  53.275  0.00  0.00     0.210 HD
ENDBRANCH   5  28
TORSDOF 4
ENDMDL
MODEL 2
REMARK VINA RESULT:      -7.1     12.987     15.121
REMARK  4 active torsions:
REMARK  status: ('A' for Active; 'I' for Inactive)
REMARK    1  A    between atoms: C_8  and  O_10 
REMARK    2  A    between atoms: O_10  and  C_11 
REMARK    3  A    between atoms: C_11  and  C_12 
REMARK    4  A    between atoms: C_16  and  O_17 
ROOT
HETATM    1  C   UNK N   1      50.525  56.312  41.832  0.00  0.00     0.047 C 
HETATM    2  C   UNK N   1      50.109  56.301  43.371  0.00  0.00    -0.030 C 
HETATM    3  C   UNK N   1      49.699  57.770  43.740  0.00  0.00     0.008 C 
HETATM    4  C   UNK N   1      48.889  57.998  45.092  0.00  0.00    -0.017 C 
HETATM    5  C   UNK N   1      47.725  56.955  45.161  0.00  0.00     0.126 C 
HETATM    6  C   UNK N   1      48.220  55.516  44.946  0.00  0.00     0.033 C 
HETATM    7  C   UNK N   1      48.868  55.378  43.564  0.00  0.00     0.013 C 
HETATM    8  C   UNK N   1      49.741  57.935  46.391  0.00  0.00     0.018 C 
HETATM    9  C   UNK N   1      48.259  59.419  45.058  0.00  0.00     0.018 C 
HETATM   10  C   UNK N   1      50.924  58.708  43.596  0.00  0.00     0.033 C 
HETATM   11  C   UNK N   1      51.664  58.523  42.304  0.00  0.00    -0.023 C 
HETATM   12  C   UNK N   1      51.482  57.474  41.474  0.00  0.00    -0.081 C 
HETATM   13  C   UNK N   1      52.198  57.507  40.141  0.00  0.00     0.043 C 
HETATM   14  C   UNK N   1      51.292  55.761  44.234  0.00  0.00     0.016 C 
ENDROOT
BRANCH   1  15
HETATM   15  C   UNK N   1      51.057  54.931  41.356  0.00  0.00     0.185 C 
BRANCH  15  16
HETATM   16  O   UNK N   1      50.171  54.321  40.491  0.00  0.00    -0.350 OA
BRANCH  16  17
HETATM   17  C   UNK N   1      49.471  54.960  39.521  0.00  0.00     0.071 A 
HETATM   18  C   UNK N   1      50.104  55.222  38.298  0.00  0.00     0.038 A 
HETATM   19  C   UNK N   1      49.421  55.880  37.270  0.00  0.00     0.017 A 
HETATM   20  C   UNK N   1      48.094  56.288  37.463  0.00  0.00    -0.002 A 
HETATM   21  C   UNK N   1      47.447  56.023  38.688  0.00  0.00     0.092 A 
HETATM   22  C   UNK N   1      47.385  56.960  36.465  0.00  0.00     0.020 A 
HETATM   23  O   UNK N   1      46.189  56.409  38.881  0.00  0.00    -0.275 OA
HETATM   24  C   UNK N   1      48.131  55.359  39.707  0.00  0.00     0.075 A 
HETATM   25  C   UNK N   1      45.489  57.055  37.950  0.00  0.00     0.288 A 
HETATM   26  O   UNK N   1      44.344  57.389  38.181  0.00  0.00    -0.260 OA
HETATM   27  C   UNK N   1      46.070  57.352  36.711  0.00  0.00     0.083 A 
ENDBRANCH  16  17
ENDBRANCH  15  16
ENDBRANCH   1  15
BRANCH   5  28
HETATM   28  O   UNK N   1      47.053  57.014  46.395  0.00  0.00    -0.395 OA
HETATM   29  H   UNK N   1      46.794  57.958  46.552  0.00  0.00     0.210 HD
ENDBRANCH   5  28
TORSDOF 4
ENDMDL
MODEL 3
REMARK VINA RESULT:      -7.0     12.886     15.476
REMARK  4 active torsions:
REMARK  status: ('A' for Active; 'I' for Inactive)
REMARK    1  A    between atoms: C_8  and  O_10 
REMARK    2  A    between atoms: O_10  and  C_11 
REMARK    3  A    between atoms: C_11  and  C_12 
REMARK    4  A    between atoms: C_16  and  O_17 
ROOT
HETATM    1  C   UNK N   1      27.715  43.879  57.443  0.00  0.00     0.047 C 
HETATM    2  C   UNK N   1      28.804  42.791  57.025  0.00  0.00    -0.030 C 
HETATM    3  C   UNK N   1      28.596  42.507  55.496  0.00  0.00     0.008 C 
HETATM    4  C   UNK N   1      29.762  41.752  54.716  0.00  0.00    -0.017 C 
HETATM    5  C   UNK N   1      31.126  42.425  55.079  0.00  0.00     0.126 C 
HETATM    6  C   UNK N   1      31.337  42.532  56.598  0.00  0.00     0.033 C 
HETATM    7  C   UNK N   1      30.230  43.385  57.229  0.00  0.00     0.013 C 
HETATM    8  C   UNK N   1      29.838  40.219  54.966  0.00  0.00     0.018 C 
HETATM    9  C   UNK N   1      29.530  41.928  53.189  0.00  0.00     0.018 C 
HETATM   10  C   UNK N   1      27.199  41.879  55.265  0.00  0.00     0.033 C 
HETATM   11  C   UNK N   1      26.095  42.615  55.965  0.00  0.00    -0.023 C 
HETATM   12  C   UNK N   1      26.297  43.543  56.924  0.00  0.00    -0.081 C 
HETATM   13  C   UNK N   1      25.086  44.299  57.430  0.00  0.00     0.043 C 
HETATM   14  C   UNK N   1      28.644  41.517  57.912  0.00  0.00     0.016 C 
ENDROOT
BRANCH   1  15
HETATM   15  C   UNK N   1      27.739  44.180  58.968  0.00  0.00     0.185 C 
BRANCH  15  16
HETATM   16  O   UNK N   1      28.497  45.300  59.249  0.00  0.00    -0.350 OA
BRANCH  16  17
HETATM   17  C   UNK N   1      28.476  46.450  58.530  0.00  0.00     0.071 A 
HETATM   18  C   UNK N   1      27.241  47.072  58.296  0.00  0.00     0.038 A 
HETATM   19  C   UNK N   1      27.171  48.259  57.560  0.00  0.00     0.017 A 
HETATM   20  C   UNK N   1      28.342  48.831  57.045  0.00  0.00    -0.002 A 
HETATM   21  C   UNK N   1      29.590  48.216  57.281  0.00  0.00     0.092 A 
HETATM   22  C   UNK N   1      28.310  50.008  56.293  0.00  0.00     0.020 A 
HETATM   23  O   UNK N   1      30.705  48.751  56.794  0.00  0.00    -0.275 OA
HETATM   24  C   UNK N   1      29.654  47.036  58.023  0.00  0.00     0.075 A 
HETATM   25  C   UNK N   1      30.705  49.868  56.070  0.00  0.00     0.288 A 
HETATM   26  O   UNK N   1      31.754  50.311  55.645  0.00  0.00    -0.260 OA
HETATM   27  C   UNK N   1      29.502  50.531  55.797  0.00  0.00     0.083 A 
ENDBRANCH  16  17
ENDBRANCH  15  16
ENDBRANCH   1  15
BRANCH   5  28
HETATM   28  O   UNK N   1      32.211  41.719  54.528  0.00  0.00    -0.395 OA
HETATM   29  H   UNK N   1      32.893  41.612  55.240  0.00  0.00     0.210 HD
ENDBRANCH   5  28
TORSDOF 4
ENDMDL
MODEL 4
REMARK VINA RESULT:      -7.0     13.629     16.997
REMARK  4 active torsions:
REMARK  status: ('A' for Active; 'I' for Inactive)
REMARK    1  A    between atoms: C_8  and  O_10 
REMARK    2  A    between atoms: O_10  and  C_11 
REMARK    3  A    between atoms: C_11  and  C_12 
REMARK    4  A    between atoms: C_16  and  O_17 
ROOT
HETATM    1  C   UNK N   1      31.117  45.491  62.269  0.00  0.00     0.047 C 
HETATM    2  C   UNK N   1      31.234  44.301  61.214  0.00  0.00    -0.030 C 
HETATM    3  C   UNK N   1      31.090  44.942  59.789  0.00  0.00     0.008 C 
HETATM    4  C   UNK N   1      31.535  44.069  58.533  0.00  0.00    -0.017 C 
HETATM    5  C   UNK N   1      32.935  43.438  58.831  0.00  0.00     0.126 C 
HETATM    6  C   UNK N   1      32.963  42.690  60.173  0.00  0.00     0.033 C 
HETATM    7  C   UNK N   1      32.647  43.652  61.324  0.00  0.00     0.013 C 
HETATM    8  C   UNK N   1      30.528  42.962  58.110  0.00  0.00     0.018 C 
HETATM    9  C   UNK N   1      31.683  45.009  57.304  0.00  0.00     0.018 C 
HETATM   10  C   UNK N   1      29.680  45.564  59.634  0.00  0.00     0.033 C 
HETATM   11  C   UNK N   1      29.278  46.420  60.798  0.00  0.00    -0.023 C 
HETATM   12  C   UNK N   1      29.924  46.434  61.983  0.00  0.00    -0.081 C 
HETATM   13  C   UNK N   1      29.483  47.459  63.006  0.00  0.00     0.043 C 
HETATM   14  C   UNK N   1      30.147  43.223  61.512  0.00  0.00     0.016 C 
ENDROOT
BRANCH   1  15
HETATM   15  C   UNK N   1      31.138  44.981  63.737  0.00  0.00     0.185 C 
BRANCH  15  16
HETATM   16  O   UNK N   1      32.035  45.696  64.506  0.00  0.00    -0.350 OA
BRANCH  16  17
HETATM   17  C   UNK N   1      33.206  46.211  64.053  0.00  0.00     0.071 A 
HETATM   18  C   UNK N   1      33.304  47.598  63.874  0.00  0.00     0.038 A 
HETATM   19  C   UNK N   1      34.491  48.172  63.409  0.00  0.00     0.017 A 
HETATM   20  C   UNK N   1      35.591  47.357  63.111  0.00  0.00    -0.002 A 
HETATM   21  C   UNK N   1      35.503  45.960  63.293  0.00  0.00     0.092 A 
HETATM   22  C   UNK N   1      36.788  47.893  62.630  0.00  0.00     0.020 A 
HETATM   23  O   UNK N   1      36.542  45.179  63.010  0.00  0.00    -0.275 OA
HETATM   24  C   UNK N   1      34.319  45.394  63.765  0.00  0.00     0.075 A 
HETATM   25  C   UNK N   1      37.693  45.660  62.546  0.00  0.00     0.288 A 
HETATM   26  O   UNK N   1      38.608  44.900  62.299  0.00  0.00    -0.260 OA
HETATM   27  C   UNK N   1      37.850  47.037  62.340  0.00  0.00     0.083 A 
ENDBRANCH  16  17
ENDBRANCH  15  16
ENDBRANCH   1  15
BRANCH   5  28
HETATM   28  O   UNK N   1      33.324  42.545  57.816  0.00  0.00    -0.395 OA
HETATM   29  H   UNK N   1      33.260  41.627  58.183  0.00  0.00     0.210 HD
ENDBRANCH   5  28
TORSDOF 4
ENDMDL
MODEL 5
REMARK VINA RESULT:      -6.7     13.191     15.024
REMARK  4 active torsions:
REMARK  status: ('A' for Active; 'I' for Inactive)
REMARK    1  A    between atoms: C_8  and  O_10 
REMARK    2  A    between atoms: O_10  and  C_11 
REMARK    3  A    between atoms: C_11  and  C_12 
REMARK    4  A    between atoms: C_16  and  O_17 
ROOT
HETATM    1  C   UNK N   1      51.005  56.370  41.367  0.00  0.00     0.047 C 
HETATM    2  C   UNK N   1      50.283  55.735  42.639  0.00  0.00    -0.030 C 
HETATM    3  C   UNK N   1      50.836  56.491  43.898  0.00  0.00     0.008 C 
HETATM    4  C   UNK N   1      50.035  56.338  45.267  0.00  0.00    -0.017 C 
HETATM    5  C   UNK N   1      48.513  56.560  44.985  0.00  0.00     0.126 C 
HETATM    6  C   UNK N   1      47.998  55.673  43.840  0.00  0.00     0.033 C 
HETATM    7  C   UNK N   1      48.749  55.992  42.542  0.00  0.00     0.013 C 
HETATM    8  C   UNK N   1      50.251  54.990  46.011  0.00  0.00     0.018 C 
HETATM    9  C   UNK N   1      50.510  57.451  46.244  0.00  0.00     0.018 C 
HETATM   10  C   UNK N   1      52.355  56.224  44.044  0.00  0.00     0.033 C 
HETATM   11  C   UNK N   1      53.115  56.408  42.765  0.00  0.00    -0.023 C 
HETATM   12  C   UNK N   1      52.535  56.511  41.550  0.00  0.00    -0.081 C 
HETATM   13  C   UNK N   1      53.430  56.839  40.374  0.00  0.00     0.043 C 
HETATM   14  C   UNK N   1      50.547  54.198  42.683  0.00  0.00     0.016 C 
ENDROOT
BRANCH   1  15
HETATM   15  C   UNK N   1      50.625  55.639  40.049  0.00  0.00     0.185 C 
BRANCH  15  16
HETATM   16  O   UNK N   1      50.141  56.523  39.104  0.00  0.00    -0.350 OA
BRANCH  16  17
HETATM   17  C   UNK N   1      48.848  56.593  38.701  0.00  0.00     0.071 A 
HETATM   18  C   UNK N   1      48.338  55.561  37.900  0.00  0.00     0.038 A 
HETATM   19  C   UNK N   1      47.011  55.593  37.460  0.00  0.00     0.017 A 
HETATM   20  C   UNK N   1      46.183  56.666  37.815  0.00  0.00    -0.002 A 
HETATM   21  C   UNK N   1      46.685  57.706  38.626  0.00  0.00     0.092 A 
HETATM   22  C   UNK N   1      44.857  56.739  37.382  0.00  0.00     0.020 A 
HETATM   23  O   UNK N   1      45.907  58.729  38.965  0.00  0.00    -0.275 OA
HETATM   24  C   UNK N   1      48.008  57.665  39.068  0.00  0.00     0.075 A 
HETATM   25  C   UNK N   1      44.642  58.829  38.564  0.00  0.00     0.288 A 
HETATM   26  O   UNK N   1      43.977  59.789  38.899  0.00  0.00    -0.260 OA
HETATM   27  C   UNK N   1      44.078  57.833  37.757  0.00  0.00     0.083 A 
ENDBRANCH  16  17
ENDBRANCH  15  16
ENDBRANCH   1  15
BRANCH   5  28
HETATM   28  O   UNK N   1      47.735  56.305  46.129  0.00  0.00    -0.395 OA
HETATM   29  H   UNK N   1      46.787  56.469  45.890  0.00  0.00     0.210 HD
ENDBRANCH   5  28
TORSDOF 4
ENDMDL
MODEL 6
REMARK VINA RESULT:      -6.7     13.062     15.697
REMARK  4 active torsions:
REMARK  status: ('A' for Active; 'I' for Inactive)
REMARK    1  A    between atoms: C_8  and  O_10 
REMARK    2  A    between atoms: O_10  and  C_11 
REMARK    3  A    between atoms: C_11  and  C_12 
REMARK    4  A    between atoms: C_16  and  O_17 
ROOT
HETATM    1  C   UNK N   1      28.900  42.368  57.144  0.00  0.00     0.047 C 
HETATM    2  C   UNK N   1      29.073  41.694  55.709  0.00  0.00    -0.030 C 
HETATM    3  C   UNK N   1      27.876  42.194  54.826  0.00  0.00     0.008 C 
HETATM    4  C   UNK N   1      27.981  41.993  53.250  0.00  0.00    -0.017 C 
HETATM    5  C   UNK N   1      29.392  42.474  52.776  0.00  0.00     0.126 C 
HETATM    6  C   UNK N   1      30.529  41.826  53.581  0.00  0.00     0.033 C 
HETATM    7  C   UNK N   1      30.403  42.189  55.065  0.00  0.00     0.013 C 
HETATM    8  C   UNK N   1      27.714  40.545  52.750  0.00  0.00     0.018 C 
HETATM    9  C   UNK N   1      26.912  42.889  52.564  0.00  0.00     0.018 C 
HETATM   10  C   UNK N   1      26.539  41.685  55.421  0.00  0.00     0.033 C 
HETATM   11  C   UNK N   1      26.422  41.913  56.898  0.00  0.00    -0.023 C 
HETATM   12  C   UNK N   1      27.458  42.253  57.693  0.00  0.00    -0.081 C 
HETATM   13  C   UNK N   1      27.149  42.589  59.137  0.00  0.00     0.043 C 
HETATM   14  C   UNK N   1      29.118  40.142  55.858  0.00  0.00     0.016 C 
ENDROOT
BRANCH   1  15
HETATM   15  C   UNK N   1      29.968  41.875  58.159  0.00  0.00     0.185 C 
BRANCH  15  16
HETATM   16  O   UNK N   1      30.897  42.860  58.432  0.00  0.00    -0.350 OA
BRANCH  16  17
HETATM   17  C   UNK N   1      30.601  44.167  58.642  0.00  0.00     0.071 A 
HETATM   18  C   UNK N   1      30.050  44.541  59.876  0.00  0.00     0.038 A 
HETATM   19  C   UNK N   1      29.729  45.876  60.136  0.00  0.00     0.017 A 
HETATM   20  C   UNK N   1      29.952  46.852  59.155  0.00  0.00    -0.002 A 
HETATM   21  C   UNK N   1      30.511  46.486  57.912  0.00  0.00     0.092 A 
HETATM   22  C   UNK N   1      29.629  48.193  59.373  0.00  0.00     0.020 A 
HETATM   23  O   UNK N   1      30.724  47.405  56.975  0.00  0.00    -0.275 OA
HETATM   24  C   UNK N   1      30.838  45.153  57.662  0.00  0.00     0.075 A 
HETATM   25  C   UNK N   1      30.423  48.690  57.152  0.00  0.00     0.288 A 
HETATM   26  O   UNK N   1      30.633  49.487  56.259  0.00  0.00    -0.260 OA
HETATM   27  C   UNK N   1      29.863  49.123  58.361  0.00  0.00     0.083 A 
ENDBRANCH  16  17
ENDBRANCH  15  16
ENDBRANCH   1  15
BRANCH   5  28
HETATM   28  O   UNK N   1      29.599  42.197  51.412  0.00  0.00    -0.395 OA
HETATM   29  H   UNK N   1      29.314  42.994  50.897  0.00  0.00     0.210 HD
ENDBRANCH   5  28
TORSDOF 4
ENDMDL
MODEL 7
REMARK VINA RESULT:      -6.5      1.246      2.353
REMARK  4 active torsions:
REMARK  status: ('A' for Active; 'I' for Inactive)
REMARK    1  A    between atoms: C_8  and  O_10 
REMARK    2  A    between atoms: O_10  and  C_11 
REMARK    3  A    between atoms: C_11  and  C_12 
REMARK    4  A    between atoms: C_16  and  O_17 
ROOT
HETATM    1  C   UNK N   1      42.214  45.292  48.492  0.00  0.00     0.047 C 
HETATM    2  C   UNK N   1      41.517  45.214  49.924  0.00  0.00    -0.030 C 
HETATM    3  C   UNK N   1      41.661  43.732  50.418  0.00  0.00     0.008 C 
HETATM    4  C   UNK N   1      41.398  43.433  51.960  0.00  0.00    -0.017 C 
HETATM    5  C   UNK N   1      42.174  44.488  52.815  0.00  0.00     0.126 C 
HETATM    6  C   UNK N   1      41.868  45.930  52.380  0.00  0.00     0.033 C 
HETATM    7  C   UNK N   1      42.278  46.143  50.919  0.00  0.00     0.013 C 
HETATM    8  C   UNK N   1      39.901  43.403  52.380  0.00  0.00     0.018 C 
HETATM    9  C   UNK N   1      41.968  42.027  52.297  0.00  0.00     0.018 C 
HETATM   10  C   UNK N   1      40.882  42.786  49.470  0.00  0.00     0.033 C 
HETATM   11  C   UNK N   1      41.163  43.039  48.018  0.00  0.00    -0.023 C 
HETATM   12  C   UNK N   1      41.789  44.140  47.552  0.00  0.00    -0.081 C 
HETATM   13  C   UNK N   1      42.126  44.178  46.076  0.00  0.00     0.043 C 
HETATM   14  C   UNK N   1      40.033  45.682  49.815  0.00  0.00     0.016 C 
ENDROOT
BRANCH   1  15
HETATM   15  C   UNK N   1      42.053  46.692  47.834  0.00  0.00     0.185 C 
BRANCH  15  16
HETATM   16  O   UNK N   1      40.844  46.804  47.177  0.00  0.00    -0.350 OA
BRANCH  16  17
HETATM   17  C   UNK N   1      40.568  47.717  46.213  0.00  0.00     0.071 A 
HETATM   18  C   UNK N   1      41.475  48.766  46.003  0.00  0.00     0.038 A 
HETATM   19  C   UNK N   1      41.231  49.731  45.021  0.00  0.00     0.017 A 
HETATM   20  C   UNK N   1      40.068  49.656  44.242  0.00  0.00    -0.002 A 
HETATM   21  C   UNK N   1      39.153  48.600  44.442  0.00  0.00     0.092 A 
HETATM   22  C   UNK N   1      39.783  50.609  43.262  0.00  0.00     0.020 A 
HETATM   23  O   UNK N   1      38.046  48.523  43.709  0.00  0.00    -0.275 OA
HETATM   24  C   UNK N   1      39.406  47.636  45.418  0.00  0.00     0.075 A 
HETATM   25  C   UNK N   1      37.746  49.419  42.772  0.00  0.00     0.288 A 
HETATM   26  O   UNK N   1      36.718  49.303  42.135  0.00  0.00    -0.260 OA
HETATM   27  C   UNK N   1      38.608  50.493  42.521  0.00  0.00     0.083 A 
ENDBRANCH  16  17
ENDBRANCH  15  16
ENDBRANCH   1  15
BRANCH   5  28
HETATM   28  O   UNK N   1      41.875  44.363  54.184  0.00  0.00    -0.395 OA
HETATM   29  H   UNK N   1      41.125  44.980  54.385  0.00  0.00     0.210 HD
ENDBRANCH   5  28
TORSDOF 4
ENDMDL
MODEL 8
REMARK VINA RESULT:      -6.5     13.250     15.529
REMARK  4 active torsions:
REMARK  status: ('A' for Active; 'I' for Inactive)
REMARK    1  A    between atoms: C_8  and  O_10 
REMARK    2  A    between atoms: O_10  and  C_11 
REMARK    3  A    between atoms: C_11  and  C_12 
REMARK    4  A    between atoms: C_16  and  O_17 
ROOT
HETATM    1  C   UNK N   1      29.500  44.184  57.726  0.00  0.00     0.047 C 
HETATM    2  C   UNK N   1      28.542  45.249  58.428  0.00  0.00    -0.030 C 
HETATM    3  C   UNK N   1      28.813  46.629  57.733  0.00  0.00     0.008 C 
HETATM    4  C   UNK N   1      27.751  47.795  57.959  0.00  0.00    -0.017 C 
HETATM    5  C   UNK N   1      26.315  47.217  57.733  0.00  0.00     0.126 C 
HETATM    6  C   UNK N   1      26.061  45.949  58.564  0.00  0.00     0.033 C 
HETATM    7  C   UNK N   1      27.057  44.850  58.176  0.00  0.00     0.013 C 
HETATM    8  C   UNK N   1      27.831  48.503  59.341  0.00  0.00     0.018 C 
HETATM    9  C   UNK N   1      27.997  48.901  56.894  0.00  0.00     0.018 C 
HETATM   10  C   UNK N   1      30.273  47.072  57.998  0.00  0.00     0.033 C 
HETATM   11  C   UNK N   1      31.277  45.987  57.745  0.00  0.00    -0.023 C 
HETATM   12  C   UNK N   1      30.957  44.686  57.586  0.00  0.00    -0.081 C 
HETATM   13  C   UNK N   1      32.070  43.736  57.193  0.00  0.00     0.043 C 
HETATM   14  C   UNK N   1      28.816  45.273  59.964  0.00  0.00     0.016 C 
ENDROOT
BRANCH   1  15
HETATM   15  C   UNK N   1      29.411  42.783  58.392  0.00  0.00     0.185 C 
BRANCH  15  16
HETATM   16  O   UNK N   1      28.879  41.847  57.527  0.00  0.00    -0.350 OA
BRANCH  16  17
HETATM   17  C   UNK N   1      28.895  41.946  56.174  0.00  0.00     0.071 A 
HETATM   18  C   UNK N   1      30.031  41.505  55.482  0.00  0.00     0.038 A 
HETATM   19  C   UNK N   1      30.092  41.589  54.088  0.00  0.00     0.017 A 
HETATM   20  C   UNK N   1      29.011  42.123  53.373  0.00  0.00    -0.002 A 
HETATM   21  C   UNK N   1      27.861  42.564  54.060  0.00  0.00     0.092 A 
HETATM   22  C   UNK N   1      29.041  42.236  51.981  0.00  0.00     0.020 A 
HETATM   23  O   UNK N   1      26.832  43.075  53.390  0.00  0.00    -0.275 OA
HETATM   24  C   UNK N   1      27.803  42.470  55.451  0.00  0.00     0.075 A 
HETATM   25  C   UNK N   1      26.833  43.200  52.065  0.00  0.00     0.288 A 
HETATM   26  O   UNK N   1      25.868  43.678  51.504  0.00  0.00    -0.260 OA
HETATM   27  C   UNK N   1      27.943  42.783  51.319  0.00  0.00     0.083 A 
ENDBRANCH  16  17
ENDBRANCH  15  16
ENDBRANCH   1  15
BRANCH   5  28
HETATM   28  O   UNK N   1      25.323  48.162  58.049  0.00  0.00    -0.395 OA
HETATM   29  H   UNK N   1      25.670  49.057  57.798  0.00  0.00     0.210 HD
ENDBRANCH   5  28
TORSDOF 4
ENDMDL
MODEL 9
REMARK VINA RESULT:      -6.2      1.299      1.763
REMARK  4 active torsions:
REMARK  status: ('A' for Active; 'I' for Inactive)
REMARK    1  A    between atoms: C_8  and  O_10 
REMARK    2  A    between atoms: O_10  and  C_11 
REMARK    3  A    between atoms: C_11  and  C_12 
REMARK    4  A    between atoms: C_16  and  O_17 
ROOT
HETATM    1  C   UNK N   1      40.859  46.435  48.555  0.00  0.00     0.047 C 
HETATM    2  C   UNK N   1      40.908  45.069  49.377  0.00  0.00    -0.030 C 
HETATM    3  C   UNK N   1      41.524  45.406  50.780  0.00  0.00     0.008 C 
HETATM    4  C   UNK N   1      41.355  44.331  51.943  0.00  0.00    -0.017 C 
HETATM    5  C   UNK N   1      39.865  43.858  51.977  0.00  0.00     0.126 C 
HETATM    6  C   UNK N   1      39.370  43.393  50.598  0.00  0.00     0.033 C 
HETATM    7  C   UNK N   1      39.456  44.542  49.587  0.00  0.00     0.013 C 
HETATM    8  C   UNK N   1      42.304  43.103  51.848  0.00  0.00     0.018 C 
HETATM    9  C   UNK N   1      41.673  45.017  53.301  0.00  0.00     0.018 C 
HETATM   10  C   UNK N   1      42.983  45.898  50.607  0.00  0.00     0.033 C 
HETATM   11  C   UNK N   1      43.135  46.941  49.541  0.00  0.00    -0.023 C 
HETATM   12  C   UNK N   1      42.185  47.229  48.626  0.00  0.00    -0.081 C 
HETATM   13  C   UNK N   1      42.434  48.407  47.708  0.00  0.00     0.043 C 
HETATM   14  C   UNK N   1      41.732  44.007  48.586  0.00  0.00     0.016 C 
ENDROOT
BRANCH   1  15
HETATM   15  C   UNK N   1      40.362  46.228  47.097  0.00  0.00     0.185 C 
BRANCH  15  16
HETATM   16  O   UNK N   1      39.205  46.941  46.853  0.00  0.00    -0.350 OA
BRANCH  16  17
HETATM   17  C   UNK N   1      38.977  47.690  45.745  0.00  0.00     0.071 A 
HETATM   18  C   UNK N   1      38.007  47.257  44.830  0.00  0.00     0.038 A 
HETATM   19  C   UNK N   1      37.739  47.998  43.675  0.00  0.00     0.017 A 
HETATM   20  C   UNK N   1      38.449  49.179  43.423  0.00  0.00    -0.002 A 
HETATM   21  C   UNK N   1      39.422  49.626  44.341  0.00  0.00     0.092 A 
HETATM   22  C   UNK N   1      38.219  49.937  42.272  0.00  0.00     0.020 A 
HETATM   23  O   UNK N   1      40.103  50.745  44.108  0.00  0.00    -0.275 OA
HETATM   24  C   UNK N   1      39.680  48.887  45.496  0.00  0.00     0.075 A 
HETATM   25  C   UNK N   1      39.909  51.485  43.018  0.00  0.00     0.288 A 
HETATM   26  O   UNK N   1      40.562  52.496  42.853  0.00  0.00    -0.260 OA
HETATM   27  C   UNK N   1      38.959  51.101  42.064  0.00  0.00     0.083 A 
ENDBRANCH  16  17
ENDBRANCH  15  16
ENDBRANCH   1  15
BRANCH   5  28
HETATM   28  O   UNK N   1      39.678  42.808  52.894  0.00  0.00    -0.395 OA
HETATM   29  H   UNK N   1      39.276  43.192  53.714  0.00  0.00     0.210 HD
ENDBRANCH   5  28
TORSDOF 4
ENDMDL
