MODEL 1
REMARK VINA RESULT:      -6.1      0.000      0.000
REMARK  6 active torsions:
REMARK  status: ('A' for Active; 'I' for Inactive)
REMARK    1  A    between atoms: C_4  and  C_32 
REMARK    2  A    between atoms: C_8  and  O_9 
REMARK    3  A    between atoms: O_9  and  C_10 
REMARK    4  A    between atoms: C_20  and  C_26 
REMARK    5  A    between atoms: C_32  and  C_33 
REMARK    6  A    between atoms: C_33  and  O_35 
ROOT
HETATM    1  O   UNK N   1      30.321  44.523  60.815  0.00  0.00    -0.297 OA
HETATM    2  C   UNK N   1      30.067  44.594  59.620  0.00  0.00     0.143 C 
HETATM    3  C   UNK N   1      28.654  44.589  59.072  0.00  0.00     0.029 C 
HETATM    4  C   UNK N   1      28.617  43.692  57.729  0.00  0.00     0.021 C 
HETATM    5  C   UNK N   1      29.796  42.617  57.710  0.00  0.00    -0.015 C 
HETATM    6  C   UNK N   1      29.841  41.809  56.384  0.00  0.00     0.018 C 
HETATM    7  C   UNK N   1      29.612  41.572  58.849  0.00  0.00     0.018 C 
HETATM    8  C   UNK N   1      31.204  43.357  57.836  0.00  0.00     0.151 C 
HETATM    9  C   UNK N   1      31.147  44.717  58.605  0.00  0.00     0.090 C 
HETATM   10  C   UNK N   1      30.842  45.924  57.648  0.00  0.00     0.049 C 
HETATM   11  C   UNK N   1      29.616  46.775  58.009  0.00  0.00    -0.070 C 
HETATM   12  C   UNK N   1      28.416  46.112  58.711  0.00  0.00     0.031 C 
HETATM   13  C   UNK N   1      27.945  46.974  59.912  0.00  0.00     0.011 C 
HETATM   14  C   UNK N   1      28.137  48.496  59.729  0.00  0.00     0.017 C 
HETATM   15  C   UNK N   1      28.395  48.977  58.276  0.00  0.00     0.011 C 
HETATM   16  C   UNK N   1      28.882  50.481  58.328  0.00  0.00     0.179 C 
HETATM   17  O   UNK N   1      29.318  50.866  57.077  0.00  0.00    -0.310 OA
HETATM   18  C   UNK N   1      30.216  50.105  56.408  0.00  0.00     0.263 C 
HETATM   19  C   UNK N   1      30.724  48.832  57.040  0.00  0.00     0.146 C 
HETATM   20  C   UNK N   1      29.561  48.115  57.720  0.00  0.00    -0.057 C 
HETATM   21  O   UNK N   1      30.514  50.387  55.261  0.00  0.00    -0.265 OA
HETATM   22  C   UNK N   1      27.143  48.884  57.367  0.00  0.00     0.023 C 
HETATM   23  C   UNK N   1      27.677  44.051  60.168  0.00  0.00     0.025 C 
ENDROOT
BRANCH   4  24
HETATM   24  C   UNK N   1      27.212  43.087  57.370  0.00  0.00     0.117 C 
BRANCH  24  25
HETATM   25  C   UNK N   1      26.524  43.635  56.139  0.00  0.00     0.258 C 
HETATM   26  O   UNK N   1      26.607  43.059  55.066  0.00  0.00    -0.265 OA
BRANCH  25  27
HETATM   27  O   UNK N   1      25.869  44.822  56.225  0.00  0.00    -0.326 OA
HETATM   28  C   UNK N   1      25.094  45.177  57.308  0.00  0.00     0.213 C 
ENDBRANCH  25  27
ENDBRANCH  24  25
ENDBRANCH   4  24
BRANCH   8  29
HETATM   29  O   UNK N   1      32.103  42.511  58.477  0.00  0.00    -0.315 OA
BRANCH  29  30
HETATM   30  C   UNK N   1      33.244  42.898  59.107  0.00  0.00     0.255 C 
HETATM   31  O   UNK N   1      34.202  43.322  58.475  0.00  0.00    -0.266 OA
HETATM   32  C   UNK N   1      33.340  42.756  60.591  0.00  0.00     0.126 C 
ENDBRANCH  29  30
ENDBRANCH   8  29
BRANCH  16  33
HETATM   33  C   UNK N   1      27.862  51.464  58.854  0.00  0.00    -0.004 A 
HETATM   34  C   UNK N   1      28.086  52.465  59.779  0.00  0.00     0.151 A 
HETATM   35  O   UNK N   1      26.968  53.127  59.977  0.00  0.00    -0.334 OA
HETATM   36  C   UNK N   1      26.021  52.611  59.225  0.00  0.00     0.142 A 
HETATM   37  C   UNK N   1      26.536  51.562  58.491  0.00  0.00     0.036 A 
ENDBRANCH  16  33
TORSDOF 6
ENDMDL
MODEL 2
REMARK VINA RESULT:      -5.3      1.965      7.933
REMARK  6 active torsions:
REMARK  status: ('A' for Active; 'I' for Inactive)
REMARK    1  A    between atoms: C_4  and  C_32 
REMARK    2  A    between atoms: C_8  and  O_9 
REMARK    3  A    between atoms: O_9  and  C_10 
REMARK    4  A    between atoms: C_20  and  C_26 
REMARK    5  A    between atoms: C_32  and  C_33 
REMARK    6  A    between atoms: C_33  and  O_35 
ROOT
HETATM    1  O   UNK N   1      27.037  47.912  56.926  0.00  0.00    -0.297 OA
HETATM    2  C   UNK N   1      27.845  47.788  57.836  0.00  0.00     0.143 C 
HETATM    3  C   UNK N   1      27.504  47.143  59.165  0.00  0.00     0.029 C 
HETATM    4  C   UNK N   1      28.215  47.979  60.350  0.00  0.00     0.021 C 
HETATM    5  C   UNK N   1      28.502  49.486  59.914  0.00  0.00    -0.015 C 
HETATM    6  C   UNK N   1      29.275  50.281  61.001  0.00  0.00     0.018 C 
HETATM    7  C   UNK N   1      27.171  50.257  59.675  0.00  0.00     0.018 C 
HETATM    8  C   UNK N   1      29.414  49.505  58.605  0.00  0.00     0.151 C 
HETATM    9  C   UNK N   1      29.251  48.247  57.691  0.00  0.00     0.090 C 
HETATM   10  C   UNK N   1      30.232  47.091  58.096  0.00  0.00     0.049 C 
HETATM   11  C   UNK N   1      29.581  45.741  58.425  0.00  0.00    -0.070 C 
HETATM   12  C   UNK N   1      28.168  45.712  59.038  0.00  0.00     0.031 C 
HETATM   13  C   UNK N   1      27.279  44.671  58.306  0.00  0.00     0.011 C 
HETATM   14  C   UNK N   1      28.039  43.438  57.768  0.00  0.00     0.017 C 
HETATM   15  C   UNK N   1      29.461  43.212  58.347  0.00  0.00     0.011 C 
HETATM   16  C   UNK N   1      30.192  42.124  57.462  0.00  0.00     0.179 C 
HETATM   17  O   UNK N   1      31.522  42.057  57.822  0.00  0.00    -0.310 OA
HETATM   18  C   UNK N   1      32.266  43.188  57.885  0.00  0.00     0.263 C 
HETATM   19  C   UNK N   1      31.622  44.515  57.568  0.00  0.00     0.146 C 
HETATM   20  C   UNK N   1      30.228  44.553  58.188  0.00  0.00    -0.057 C 
HETATM   21  O   UNK N   1      33.406  43.140  58.311  0.00  0.00    -0.265 OA
HETATM   22  C   UNK N   1      29.455  42.739  59.824  0.00  0.00     0.023 C 
HETATM   23  C   UNK N   1      25.948  47.093  59.330  0.00  0.00     0.025 C 
ENDROOT
BRANCH   4  24
HETATM   24  C   UNK N   1      27.529  47.854  61.758  0.00  0.00     0.117 C 
BRANCH  24  25
HETATM   25  C   UNK N   1      28.276  47.075  62.818  0.00  0.00     0.258 C 
HETATM   26  O   UNK N   1      28.601  47.601  63.871  0.00  0.00    -0.265 OA
BRANCH  25  27
HETATM   27  O   UNK N   1      28.648  45.795  62.554  0.00  0.00    -0.326 OA
HETATM   28  C   UNK N   1      29.963  45.407  62.414  0.00  0.00     0.213 C 
ENDBRANCH  25  27
ENDBRANCH  24  25
ENDBRANCH   4  24
BRANCH   8  29
HETATM   29  O   UNK N   1      29.120  50.645  57.865  0.00  0.00    -0.315 OA
BRANCH  29  30
HETATM   30  C   UNK N   1      29.210  50.758  56.513  0.00  0.00     0.255 C 
HETATM   31  O   UNK N   1      28.207  50.801  55.815  0.00  0.00    -0.266 OA
HETATM   32  C   UNK N   1      30.560  50.779  55.873  0.00  0.00     0.126 C 
ENDBRANCH  29  30
ENDBRANCH   8  29
BRANCH  16  33
HETATM   33  C   UNK N   1      29.569  40.748  57.499  0.00  0.00    -0.004 A 
HETATM   34  C   UNK N   1      28.777  40.179  56.521  0.00  0.00     0.151 A 
HETATM   35  O   UNK N   1      28.433  38.967  56.895  0.00  0.00    -0.334 OA
HETATM   36  C   UNK N   1      28.964  38.712  58.071  0.00  0.00     0.142 A 
HETATM   37  C   UNK N   1      29.696  39.802  58.493  0.00  0.00     0.036 A 
ENDBRANCH  16  33
TORSDOF 6
ENDMDL
MODEL 3
REMARK VINA RESULT:      -5.2      2.249      8.218
REMARK  6 active torsions:
REMARK  status: ('A' for Active; 'I' for Inactive)
REMARK    1  A    between atoms: C_4  and  C_32 
REMARK    2  A    between atoms: C_8  and  O_9 
REMARK    3  A    between atoms: O_9  and  C_10 
REMARK    4  A    between atoms: C_20  and  C_26 
REMARK    5  A    between atoms: C_32  and  C_33 
REMARK    6  A    between atoms: C_33  and  O_35 
ROOT
HETATM    1  O   UNK N   1      27.129  45.899  57.779  0.00  0.00    -0.297 OA
HETATM    2  C   UNK N   1      28.107  46.287  58.405  0.00  0.00     0.143 C 
HETATM    3  C   UNK N   1      28.204  46.217  59.916  0.00  0.00     0.029 C 
HETATM    4  C   UNK N   1      28.908  47.566  60.457  0.00  0.00     0.021 C 
HETATM    5  C   UNK N   1      28.724  48.775  59.434  0.00  0.00    -0.015 C 
HETATM    6  C   UNK N   1      29.477  50.056  59.886  0.00  0.00     0.018 C 
HETATM    7  C   UNK N   1      27.223  49.174  59.311  0.00  0.00     0.018 C 
HETATM    8  C   UNK N   1      29.326  48.375  58.011  0.00  0.00     0.151 C 
HETATM    9  C   UNK N   1      29.300  46.841  57.712  0.00  0.00     0.090 C 
HETATM   10  C   UNK N   1      30.595  46.117  58.223  0.00  0.00     0.049 C 
HETATM   11  C   UNK N   1      30.375  44.951  59.196  0.00  0.00    -0.070 C 
HETATM   12  C   UNK N   1      29.161  44.978  60.146  0.00  0.00     0.031 C 
HETATM   13  C   UNK N   1      28.430  43.609  60.131  0.00  0.00     0.011 C 
HETATM   14  C   UNK N   1      29.347  42.388  59.898  0.00  0.00     0.017 C 
HETATM   15  C   UNK N   1      30.867  42.635  60.095  0.00  0.00     0.011 C 
HETATM   16  C   UNK N   1      31.653  41.394  59.508  0.00  0.00     0.179 C 
HETATM   17  O   UNK N   1      33.003  41.678  59.479  0.00  0.00    -0.310 OA
HETATM   18  C   UNK N   1      33.443  42.825  58.909  0.00  0.00     0.263 C 
HETATM   19  C   UNK N   1      32.443  43.789  58.318  0.00  0.00     0.146 C 
HETATM   20  C   UNK N   1      31.233  43.881  59.244  0.00  0.00    -0.057 C 
HETATM   21  O   UNK N   1      34.621  43.126  58.984  0.00  0.00    -0.265 OA
HETATM   22  C   UNK N   1      31.269  42.830  61.580  0.00  0.00     0.023 C 
HETATM   23  C   UNK N   1      26.774  46.016  60.516  0.00  0.00     0.025 C 
ENDROOT
BRANCH   4  24
HETATM   24  C   UNK N   1      28.566  47.946  61.944  0.00  0.00     0.117 C 
BRANCH  24  25
HETATM   25  C   UNK N   1      29.362  47.255  63.029  0.00  0.00     0.258 C 
HETATM   26  O   UNK N   1      30.578  47.351  63.071  0.00  0.00    -0.265 OA
BRANCH  25  27
HETATM   27  O   UNK N   1      28.711  46.460  63.917  0.00  0.00    -0.326 OA
HETATM   28  C   UNK N   1      28.684  45.086  63.819  0.00  0.00     0.213 C 
ENDBRANCH  25  27
ENDBRANCH  24  25
ENDBRANCH   4  24
BRANCH   8  29
HETATM   29  O   UNK N   1      28.620  49.044  57.017  0.00  0.00    -0.315 OA
BRANCH  29  30
HETATM   30  C   UNK N   1      29.109  50.041  56.232  0.00  0.00     0.255 C 
HETATM   31  O   UNK N   1      28.361  50.841  55.688  0.00  0.00    -0.266 OA
HETATM   32  C   UNK N   1      30.582  50.124  55.997  0.00  0.00     0.126 C 
ENDBRANCH  29  30
ENDBRANCH   8  29
BRANCH  16  33
HETATM   33  C   UNK N   1      31.408  40.087  60.224  0.00  0.00    -0.004 A 
HETATM   34  C   UNK N   1      32.262  39.003  60.270  0.00  0.00     0.151 A 
HETATM   35  O   UNK N   1      31.717  38.055  60.999  0.00  0.00    -0.334 OA
HETATM   36  C   UNK N   1      30.546  38.465  61.436  0.00  0.00     0.142 A 
HETATM   37  C   UNK N   1      30.307  39.745  60.980  0.00  0.00     0.036 A 
ENDBRANCH  16  33
TORSDOF 6
ENDMDL
MODEL 4
REMARK VINA RESULT:      -5.1      2.238      5.096
REMARK  6 active torsions:
REMARK  status: ('A' for Active; 'I' for Inactive)
REMARK    1  A    between atoms: C_4  and  C_32 
REMARK    2  A    between atoms: C_8  and  O_9 
REMARK    3  A    between atoms: O_9  and  C_10 
REMARK    4  A    between atoms: C_20  and  C_26 
REMARK    5  A    between atoms: C_32  and  C_33 
REMARK    6  A    between atoms: C_33  and  O_35 
ROOT
HETATM    1  O   UNK N   1      31.419  42.199  56.834  0.00  0.00    -0.297 OA
HETATM    2  C   UNK N   1      30.842  42.387  57.896  0.00  0.00     0.143 C 
HETATM    3  C   UNK N   1      31.453  43.166  59.044  0.00  0.00     0.029 C 
HETATM    4  C   UNK N   1      31.083  42.428  60.432  0.00  0.00     0.021 C 
HETATM    5  C   UNK N   1      30.779  40.878  60.210  0.00  0.00    -0.015 C 
HETATM    6  C   UNK N   1      30.325  40.170  61.514  0.00  0.00     0.018 C 
HETATM    7  C   UNK N   1      32.055  40.126  59.728  0.00  0.00     0.018 C 
HETATM    8  C   UNK N   1      29.587  40.707  59.163  0.00  0.00     0.151 C 
HETATM    9  C   UNK N   1      29.466  41.875  58.131  0.00  0.00     0.090 C 
HETATM   10  C   UNK N   1      28.550  43.036  58.658  0.00  0.00     0.049 C 
HETATM   11  C   UNK N   1      29.191  44.430  58.703  0.00  0.00    -0.070 C 
HETATM   12  C   UNK N   1      30.706  44.559  58.956  0.00  0.00     0.031 C 
HETATM   13  C   UNK N   1      31.343  45.550  57.945  0.00  0.00     0.011 C 
HETATM   14  C   UNK N   1      30.416  46.703  57.500  0.00  0.00     0.017 C 
HETATM   15  C   UNK N   1      29.161  46.942  58.380  0.00  0.00     0.011 C 
HETATM   16  C   UNK N   1      28.187  47.919  57.605  0.00  0.00     0.179 C 
HETATM   17  O   UNK N   1      26.978  47.981  58.265  0.00  0.00    -0.310 OA
HETATM   18  C   UNK N   1      26.328  46.841  58.602  0.00  0.00     0.263 C 
HETATM   19  C   UNK N   1      26.947  45.508  58.256  0.00  0.00     0.146 C 
HETATM   20  C   UNK N   1      28.447  45.570  58.526  0.00  0.00    -0.057 C 
HETATM   21  O   UNK N   1      25.320  46.897  59.282  0.00  0.00    -0.265 OA
HETATM   22  C   UNK N   1      29.490  47.555  59.766  0.00  0.00     0.023 C 
HETATM   23  C   UNK N   1      32.999  43.277  58.827  0.00  0.00     0.025 C 
ENDROOT
BRANCH   4  24
HETATM   24  C   UNK N   1      32.074  42.707  61.620  0.00  0.00     0.117 C 
BRANCH  24  25
HETATM   25  C   UNK N   1      31.484  43.301  62.880  0.00  0.00     0.258 C 
HETATM   26  O   UNK N   1      31.571  42.716  63.948  0.00  0.00    -0.265 OA
BRANCH  25  27
HETATM   27  O   UNK N   1      30.788  44.465  62.796  0.00  0.00    -0.326 OA
HETATM   28  C   UNK N   1      31.372  45.669  62.467  0.00  0.00     0.213 C 
ENDBRANCH  25  27
ENDBRANCH  24  25
ENDBRANCH   4  24
BRANCH   8  29
HETATM   29  O   UNK N   1      29.757  39.510  58.476  0.00  0.00    -0.315 OA
BRANCH  29  30
HETATM   30  C   UNK N   1      28.917  39.015  57.527  0.00  0.00     0.255 C 
HETATM   31  O   UNK N   1      27.800  38.614  57.820  0.00  0.00    -0.266 OA
HETATM   32  C   UNK N   1      29.393  38.918  56.115  0.00  0.00     0.126 C 
ENDBRANCH  29  30
ENDBRANCH   8  29
BRANCH  16  33
HETATM   33  C   UNK N   1      28.731  49.309  57.372  0.00  0.00    -0.004 A 
HETATM   34  C   UNK N   1      28.484  50.427  58.144  0.00  0.00     0.151 A 
HETATM   35  O   UNK N   1      29.140  51.450  57.644  0.00  0.00    -0.334 OA
HETATM   36  C   UNK N   1      29.809  51.057  56.582  0.00  0.00     0.142 A 
HETATM   37  C   UNK N   1      29.589  49.711  56.372  0.00  0.00     0.036 A 
ENDBRANCH  16  33
TORSDOF 6
ENDMDL
MODEL 5
REMARK VINA RESULT:      -5.1      3.092      9.055
REMARK  6 active torsions:
REMARK  status: ('A' for Active; 'I' for Inactive)
REMARK    1  A    between atoms: C_4  and  C_32 
REMARK    2  A    between atoms: C_8  and  O_9 
REMARK    3  A    between atoms: O_9  and  C_10 
REMARK    4  A    between atoms: C_20  and  C_26 
REMARK    5  A    between atoms: C_32  and  C_33 
REMARK    6  A    between atoms: C_33  and  O_35 
ROOT
HETATM    1  O   UNK N   1      27.788  43.171  60.137  0.00  0.00    -0.297 OA
HETATM    2  C   UNK N   1      28.297  43.528  59.083  0.00  0.00     0.143 C 
HETATM    3  C   UNK N   1      29.706  43.149  58.673  0.00  0.00     0.029 C 
HETATM    4  C   UNK N   1      30.409  44.424  57.974  0.00  0.00     0.021 C 
HETATM    5  C   UNK N   1      29.746  45.794  58.452  0.00  0.00    -0.015 C 
HETATM    6  C   UNK N   1      30.338  47.027  57.718  0.00  0.00     0.018 C 
HETATM    7  C   UNK N   1      29.996  46.030  59.971  0.00  0.00     0.018 C 
HETATM    8  C   UNK N   1      28.184  45.781  58.126  0.00  0.00     0.151 C 
HETATM    9  C   UNK N   1      27.546  44.354  58.101  0.00  0.00     0.090 C 
HETATM   10  C   UNK N   1      27.629  43.695  56.679  0.00  0.00     0.049 C 
HETATM   11  C   UNK N   1      28.327  42.330  56.610  0.00  0.00    -0.070 C 
HETATM   12  C   UNK N   1      29.462  42.010  57.601  0.00  0.00     0.031 C 
HETATM   13  C   UNK N   1      29.264  40.600  58.218  0.00  0.00     0.011 C 
HETATM   14  C   UNK N   1      28.588  39.574  57.281  0.00  0.00     0.017 C 
HETATM   15  C   UNK N   1      28.557  39.949  55.776  0.00  0.00     0.011 C 
HETATM   16  C   UNK N   1      27.563  38.965  55.037  0.00  0.00     0.179 C 
HETATM   17  O   UNK N   1      27.355  39.405  53.747  0.00  0.00    -0.310 OA
HETATM   18  C   UNK N   1      26.996  40.691  53.518  0.00  0.00     0.263 C 
HETATM   19  C   UNK N   1      26.839  41.634  54.686  0.00  0.00     0.146 C 
HETATM   20  C   UNK N   1      27.966  41.383  55.684  0.00  0.00    -0.057 C 
HETATM   21  O   UNK N   1      26.922  41.105  52.375  0.00  0.00    -0.265 OA
HETATM   22  C   UNK N   1      29.946  39.869  55.093  0.00  0.00     0.023 C 
HETATM   23  C   UNK N   1      30.495  42.657  59.932  0.00  0.00     0.025 C 
ENDROOT
BRANCH   4  24
HETATM   24  C   UNK N   1      31.979  44.435  58.031  0.00  0.00     0.117 C 
BRANCH  24  25
HETATM   25  C   UNK N   1      32.699  43.321  57.303  0.00  0.00     0.258 C 
HETATM   26  O   UNK N   1      32.416  43.042  56.149  0.00  0.00    -0.265 OA
BRANCH  25  27
HETATM   27  O   UNK N   1      33.620  42.582  57.975  0.00  0.00    -0.326 OA
HETATM   28  C   UNK N   1      34.109  42.936  59.214  0.00  0.00     0.213 C 
ENDBRANCH  25  27
ENDBRANCH  24  25
ENDBRANCH   4  24
BRANCH   8  29
HETATM   29  O   UNK N   1      27.519  46.559  59.069  0.00  0.00    -0.315 OA
BRANCH  29  30
HETATM   30  C   UNK N   1      26.702  47.610  58.793  0.00  0.00     0.255 C 
HETATM   31  O   UNK N   1      25.817  47.942  59.569  0.00  0.00    -0.266 OA
HETATM   32  C   UNK N   1      26.863  48.336  57.497  0.00  0.00     0.126 C 
ENDBRANCH  29  30
ENDBRANCH   8  29
BRANCH  16  33
HETATM   33  C   UNK N   1      27.987  37.515  55.035  0.00  0.00    -0.004 A 
HETATM   34  C   UNK N   1      28.490  36.808  53.961  0.00  0.00     0.151 A 
HETATM   35  O   UNK N   1      28.762  35.580  54.341  0.00  0.00    -0.334 OA
HETATM   36  C   UNK N   1      28.465  35.447  55.616  0.00  0.00     0.142 A 
HETATM   37  C   UNK N   1      27.978  36.642  56.102  0.00  0.00     0.036 A 
ENDBRANCH  16  33
TORSDOF 6
ENDMDL
MODEL 6
REMARK VINA RESULT:      -4.5      2.894      8.406
REMARK  6 active torsions:
REMARK  status: ('A' for Active; 'I' for Inactive)
REMARK    1  A    between atoms: C_4  and  C_32 
REMARK    2  A    between atoms: C_8  and  O_9 
REMARK    3  A    between atoms: O_9  and  C_10 
REMARK    4  A    between atoms: C_20  and  C_26 
REMARK    5  A    between atoms: C_32  and  C_33 
REMARK    6  A    between atoms: C_33  and  O_35 
ROOT
HETATM    1  O   UNK N   1      26.313  44.914  59.135  0.00  0.00    -0.297 OA
HETATM    2  C   UNK N   1      27.504  44.650  59.234  0.00  0.00     0.143 C 
HETATM    3  C   UNK N   1      28.032  43.516  60.090  0.00  0.00     0.029 C 
HETATM    4  C   UNK N   1      29.381  44.006  60.832  0.00  0.00     0.021 C 
HETATM    5  C   UNK N   1      29.425  45.594  60.980  0.00  0.00    -0.015 C 
HETATM    6  C   UNK N   1      30.757  46.095  61.600  0.00  0.00     0.018 C 
HETATM    7  C   UNK N   1      28.291  46.094  61.922  0.00  0.00     0.018 C 
HETATM    8  C   UNK N   1      29.312  46.273  59.540  0.00  0.00     0.151 C 
HETATM    9  C   UNK N   1      28.532  45.421  58.488  0.00  0.00     0.090 C 
HETATM   10  C   UNK N   1      29.475  44.435  57.710  0.00  0.00     0.049 C 
HETATM   11  C   UNK N   1      29.091  42.950  57.769  0.00  0.00    -0.070 C 
HETATM   12  C   UNK N   1      28.377  42.403  59.020  0.00  0.00     0.031 C 
HETATM   13  C   UNK N   1      27.163  41.526  58.612  0.00  0.00     0.011 C 
HETATM   14  C   UNK N   1      27.336  40.760  57.282  0.00  0.00     0.017 C 
HETATM   15  C   UNK N   1      28.789  40.653  56.746  0.00  0.00     0.011 C 
HETATM   16  C   UNK N   1      28.732  40.136  55.252  0.00  0.00     0.179 C 
HETATM   17  O   UNK N   1      29.986  40.233  54.685  0.00  0.00    -0.310 OA
HETATM   18  C   UNK N   1      30.674  41.397  54.752  0.00  0.00     0.263 C 
HETATM   19  C   UNK N   1      30.059  42.579  55.461  0.00  0.00     0.146 C 
HETATM   20  C   UNK N   1      29.369  42.094  56.733  0.00  0.00    -0.057 C 
HETATM   21  O   UNK N   1      31.822  41.447  54.351  0.00  0.00    -0.265 OA
HETATM   22  C   UNK N   1      29.682  39.696  57.577  0.00  0.00     0.023 C 
HETATM   23  C   UNK N   1      26.926  43.078  61.106  0.00  0.00     0.025 C 
ENDROOT
BRANCH   4  24
HETATM   24  C   UNK N   1      29.725  43.243  62.162  0.00  0.00     0.117 C 
BRANCH  24  25
HETATM   25  C   UNK N   1      30.633  42.039  62.047  0.00  0.00     0.258 C 
HETATM   26  O   UNK N   1      30.349  40.986  62.596  0.00  0.00    -0.265 OA
BRANCH  25  27
HETATM   27  O   UNK N   1      31.811  42.164  61.383  0.00  0.00    -0.326 OA
HETATM   28  C   UNK N   1      32.067  41.543  60.180  0.00  0.00     0.213 C 
ENDBRANCH  25  27
ENDBRANCH  24  25
ENDBRANCH   4  24
BRANCH   8  29
HETATM   29  O   UNK N   1      28.691  47.511  59.673  0.00  0.00    -0.315 OA
BRANCH  29  30
HETATM   30  C   UNK N   1      29.263  48.716  59.409  0.00  0.00     0.255 C 
HETATM   31  O   UNK N   1      29.185  49.641  60.206  0.00  0.00    -0.266 OA
HETATM   32  C   UNK N   1      29.956  48.922  58.101  0.00  0.00     0.126 C 
ENDBRANCH  29  30
ENDBRANCH   8  29
BRANCH  16  33
HETATM   33  C   UNK N   1      28.185  38.739  55.081  0.00  0.00    -0.004 A 
HETATM   34  C   UNK N   1      28.920  37.574  54.992  0.00  0.00     0.151 A 
HETATM   35  O   UNK N   1      28.101  36.554  54.866  0.00  0.00    -0.334 OA
HETATM   36  C   UNK N   1      26.861  36.994  54.872  0.00  0.00     0.142 A 
HETATM   37  C   UNK N   1      26.860  38.366  55.012  0.00  0.00     0.036 A 
ENDBRANCH  16  33
TORSDOF 6
ENDMDL
MODEL 7
REMARK VINA RESULT:      -4.5      3.739      6.805
REMARK  6 active torsions:
REMARK  status: ('A' for Active; 'I' for Inactive)
REMARK    1  A    between atoms: C_4  and  C_32 
REMARK    2  A    between atoms: C_8  and  O_9 
REMARK    3  A    between atoms: O_9  and  C_10 
REMARK    4  A    between atoms: C_20  and  C_26 
REMARK    5  A    between atoms: C_32  and  C_33 
REMARK    6  A    between atoms: C_33  and  O_35 
ROOT
HETATM    1  O   UNK N   1      30.181  39.642  55.393  0.00  0.00    -0.297 OA
HETATM    2  C   UNK N   1      29.266  40.409  55.664  0.00  0.00     0.143 C 
HETATM    3  C   UNK N   1      28.297  40.171  56.805  0.00  0.00     0.029 C 
HETATM    4  C   UNK N   1      26.812  40.591  56.325  0.00  0.00     0.021 C 
HETATM    5  C   UNK N   1      26.665  40.515  54.739  0.00  0.00    -0.015 C 
HETATM    6  C   UNK N   1      25.278  41.009  54.248  0.00  0.00     0.018 C 
HETATM    7  C   UNK N   1      26.806  39.047  54.238  0.00  0.00     0.018 C 
HETATM    8  C   UNK N   1      27.751  41.460  54.051  0.00  0.00     0.151 C 
HETATM    9  C   UNK N   1      29.052  41.662  54.894  0.00  0.00     0.090 C 
HETATM   10  C   UNK N   1      28.935  42.878  55.879  0.00  0.00     0.049 C 
HETATM   11  C   UNK N   1      29.178  42.567  57.362  0.00  0.00    -0.070 C 
HETATM   12  C   UNK N   1      28.811  41.176  57.914  0.00  0.00     0.031 C 
HETATM   13  C   UNK N   1      29.968  40.614  58.782  0.00  0.00     0.011 C 
HETATM   14  C   UNK N   1      30.784  41.683  59.542  0.00  0.00     0.017 C 
HETATM   15  C   UNK N   1      30.128  43.085  59.653  0.00  0.00     0.011 C 
HETATM   16  C   UNK N   1      31.222  44.108  60.161  0.00  0.00     0.179 C 
HETATM   17  O   UNK N   1      30.727  45.393  60.067  0.00  0.00    -0.310 OA
HETATM   18  C   UNK N   1      30.182  45.827  58.906  0.00  0.00     0.263 C 
HETATM   19  C   UNK N   1      30.113  44.890  57.725  0.00  0.00     0.146 C 
HETATM   20  C   UNK N   1      29.714  43.500  58.214  0.00  0.00    -0.057 C 
HETATM   21  O   UNK N   1      29.646  46.920  58.860  0.00  0.00    -0.265 OA
HETATM   22  C   UNK N   1      28.916  43.121  60.619  0.00  0.00     0.023 C 
HETATM   23  C   UNK N   1      28.373  38.671  57.243  0.00  0.00     0.025 C 
ENDROOT
BRANCH   4  24
HETATM   24  C   UNK N   1      25.638  39.886  57.097  0.00  0.00     0.117 C 
BRANCH  24  25
HETATM   25  C   UNK N   1      24.846  40.736  58.066  0.00  0.00     0.258 C 
HETATM   26  O   UNK N   1      24.072  40.226  58.859  0.00  0.00    -0.265 OA
BRANCH  25  27
HETATM   27  O   UNK N   1      24.951  42.089  57.992  0.00  0.00    -0.326 OA
HETATM   28  C   UNK N   1      25.518  42.855  58.987  0.00  0.00     0.213 C 
ENDBRANCH  25  27
ENDBRANCH  24  25
ENDBRANCH   4  24
BRANCH   8  29
HETATM   29  O   UNK N   1      28.091  40.929  52.811  0.00  0.00    -0.315 OA
BRANCH  29  30
HETATM   30  C   UNK N   1      28.216  41.634  51.654  0.00  0.00     0.255 C 
HETATM   31  O   UNK N   1      28.458  41.072  50.595  0.00  0.00    -0.266 OA
HETATM   32  C   UNK N   1      28.101  43.123  51.694  0.00  0.00     0.126 C 
ENDBRANCH  29  30
ENDBRANCH   8  29
BRANCH  16  33
HETATM   33  C   UNK N   1      31.742  43.846  61.554  0.00  0.00    -0.004 A 
HETATM   34  C   UNK N   1      33.000  43.387  61.889  0.00  0.00     0.151 A 
HETATM   35  O   UNK N   1      33.094  43.297  63.197  0.00  0.00    -0.334 OA
HETATM   36  C   UNK N   1      31.957  43.678  63.738  0.00  0.00     0.142 A 
HETATM   37  C   UNK N   1      31.072  44.041  62.744  0.00  0.00     0.036 A 
ENDBRANCH  16  33
TORSDOF 6
ENDMDL
MODEL 8
REMARK VINA RESULT:      -4.3      3.724      9.105
REMARK  6 active torsions:
REMARK  status: ('A' for Active; 'I' for Inactive)
REMARK    1  A    between atoms: C_4  and  C_32 
REMARK    2  A    between atoms: C_8  and  O_9 
REMARK    3  A    between atoms: O_9  and  C_10 
REMARK    4  A    between atoms: C_20  and  C_26 
REMARK    5  A    between atoms: C_32  and  C_33 
REMARK    6  A    between atoms: C_33  and  O_35 
ROOT
HETATM    1  O   UNK N   1      27.897  46.419  63.499  0.00  0.00    -0.297 OA
HETATM    2  C   UNK N   1      28.991  46.761  63.071  0.00  0.00     0.143 C 
HETATM    3  C   UNK N   1      30.297  46.390  63.745  0.00  0.00     0.029 C 
HETATM    4  C   UNK N   1      31.294  47.659  63.687  0.00  0.00     0.021 C 
HETATM    5  C   UNK N   1      30.491  49.031  63.552  0.00  0.00    -0.015 C 
HETATM    6  C   UNK N   1      31.431  50.256  63.395  0.00  0.00     0.018 C 
HETATM    7  C   UNK N   1      29.635  49.300  64.825  0.00  0.00     0.018 C 
HETATM    8  C   UNK N   1      29.575  48.993  62.246  0.00  0.00     0.151 C 
HETATM    9  C   UNK N   1      29.119  47.559  61.823  0.00  0.00     0.090 C 
HETATM   10  C   UNK N   1      30.150  46.873  60.857  0.00  0.00     0.049 C 
HETATM   11  C   UNK N   1      30.699  45.515  61.315  0.00  0.00    -0.070 C 
HETATM   12  C   UNK N   1      30.847  45.228  62.822  0.00  0.00     0.031 C 
HETATM   13  C   UNK N   1      30.272  43.828  63.167  0.00  0.00     0.011 C 
HETATM   14  C   UNK N   1      30.416  42.776  62.045  0.00  0.00     0.017 C 
HETATM   15  C   UNK N   1      31.425  43.121  60.917  0.00  0.00     0.011 C 
HETATM   16  C   UNK N   1      31.201  42.111  59.721  0.00  0.00     0.179 C 
HETATM   17  O   UNK N   1      31.934  42.523  58.628  0.00  0.00    -0.310 OA
HETATM   18  C   UNK N   1      31.836  43.800  58.187  0.00  0.00     0.263 C 
HETATM   19  C   UNK N   1      30.927  44.764  58.910  0.00  0.00     0.146 C 
HETATM   20  C   UNK N   1      31.065  44.546  60.414  0.00  0.00    -0.057 C 
HETATM   21  O   UNK N   1      32.567  44.191  57.295  0.00  0.00    -0.265 OA
HETATM   22  C   UNK N   1      32.905  43.043  61.372  0.00  0.00     0.023 C 
HETATM   23  C   UNK N   1      30.008  45.932  65.213  0.00  0.00     0.025 C 
ENDROOT
BRANCH   4  24
HETATM   24  C   UNK N   1      32.400  47.689  64.803  0.00  0.00     0.117 C 
BRANCH  24  25
HETATM   25  C   UNK N   1      33.797  47.273  64.396  0.00  0.00     0.258 C 
HETATM   26  O   UNK N   1      34.776  47.716  64.976  0.00  0.00    -0.265 OA
BRANCH  25  27
HETATM   27  O   UNK N   1      33.953  46.454  63.324  0.00  0.00    -0.326 OA
HETATM   28  C   UNK N   1      35.072  45.674  63.130  0.00  0.00     0.213 C 
ENDBRANCH  25  27
ENDBRANCH  24  25
ENDBRANCH   4  24
BRANCH   8  29
HETATM   29  O   UNK N   1      28.449  49.782  62.461  0.00  0.00    -0.315 OA
BRANCH  29  30
HETATM   30  C   UNK N   1      27.809  50.521  61.516  0.00  0.00     0.255 C 
HETATM   31  O   UNK N   1      26.669  50.926  61.697  0.00  0.00    -0.266 OA
HETATM   32  C   UNK N   1      28.497  50.799  60.219  0.00  0.00     0.126 C 
ENDBRANCH  29  30
ENDBRANCH   8  29
BRANCH  16  33
HETATM   33  C   UNK N   1      31.504  40.666  60.042  0.00  0.00    -0.004 A 
HETATM   34  C   UNK N   1      32.747  40.063  60.022  0.00  0.00     0.151 A 
HETATM   35  O   UNK N   1      32.621  38.803  60.373  0.00  0.00    -0.334 OA
HETATM   36  C   UNK N   1      31.355  38.550  60.626  0.00  0.00     0.142 A 
HETATM   37  C   UNK N   1      30.610  39.695  60.438  0.00  0.00     0.036 A 
ENDBRANCH  16  33
TORSDOF 6
ENDMDL
MODEL 9
REMARK VINA RESULT:      -4.3      3.179      8.764
REMARK  6 active torsions:
REMARK  status: ('A' for Active; 'I' for Inactive)
REMARK    1  A    between atoms: C_4  and  C_32 
REMARK    2  A    between atoms: C_8  and  O_9 
REMARK    3  A    between atoms: O_9  and  C_10 
REMARK    4  A    between atoms: C_20  and  C_26 
REMARK    5  A    between atoms: C_32  and  C_33 
REMARK    6  A    between atoms: C_33  and  O_35 
ROOT
HETATM    1  O   UNK N   1      26.238  42.867  59.781  0.00  0.00    -0.297 OA
HETATM    2  C   UNK N   1      27.377  42.972  59.345  0.00  0.00     0.143 C 
HETATM    3  C   UNK N   1      28.449  41.925  59.570  0.00  0.00     0.029 C 
HETATM    4  C   UNK N   1      29.854  42.669  59.861  0.00  0.00     0.021 C 
HETATM    5  C   UNK N   1      29.630  44.139  60.438  0.00  0.00    -0.015 C 
HETATM    6  C   UNK N   1      30.963  44.910  60.631  0.00  0.00     0.018 C 
HETATM    7  C   UNK N   1      28.950  44.088  61.838  0.00  0.00     0.018 C 
HETATM    8  C   UNK N   1      28.757  44.995  59.411  0.00  0.00     0.151 C 
HETATM    9  C   UNK N   1      27.788  44.144  58.528  0.00  0.00     0.090 C 
HETATM   10  C   UNK N   1      28.473  43.654  57.203  0.00  0.00     0.049 C 
HETATM   11  C   UNK N   1      28.470  42.137  56.965  0.00  0.00    -0.070 C 
HETATM   12  C   UNK N   1      28.510  41.182  58.174  0.00  0.00     0.031 C 
HETATM   13  C   UNK N   1      27.450  40.060  58.014  0.00  0.00     0.011 C 
HETATM   14  C   UNK N   1      27.174  39.634  56.555  0.00  0.00     0.017 C 
HETATM   15  C   UNK N   1      28.230  40.080  55.508  0.00  0.00     0.011 C 
HETATM   16  C   UNK N   1      27.629  39.845  54.063  0.00  0.00     0.179 C 
HETATM   17  O   UNK N   1      28.456  40.425  53.123  0.00  0.00    -0.310 OA
HETATM   18  C   UNK N   1      28.846  41.714  53.264  0.00  0.00     0.263 C 
HETATM   19  C   UNK N   1      28.377  42.501  54.464  0.00  0.00     0.146 C 
HETATM   20  C   UNK N   1      28.433  41.608  55.699  0.00  0.00    -0.057 C 
HETATM   21  O   UNK N   1      29.663  42.187  52.496  0.00  0.00    -0.265 OA
HETATM   22  C   UNK N   1      29.573  39.315  55.626  0.00  0.00     0.023 C 
HETATM   23  C   UNK N   1      28.020  40.992  60.751  0.00  0.00     0.025 C 
ENDROOT
BRANCH   4  24
HETATM   24  C   UNK N   1      30.897  41.827  60.680  0.00  0.00     0.117 C 
BRANCH  24  25
HETATM   25  C   UNK N   1      32.197  41.483  59.987  0.00  0.00     0.258 C 
HETATM   26  O   UNK N   1      32.837  40.495  60.310  0.00  0.00    -0.265 OA
BRANCH  25  27
HETATM   27  O   UNK N   1      32.685  42.331  59.045  0.00  0.00    -0.326 OA
HETATM   28  C   UNK N   1      33.965  42.841  59.082  0.00  0.00     0.213 C 
ENDBRANCH  25  27
ENDBRANCH  24  25
ENDBRANCH   4  24
BRANCH   8  29
HETATM   29  O   UNK N   1      28.018  45.935  60.121  0.00  0.00    -0.315 OA
BRANCH  29  30
HETATM   30  C   UNK N   1      28.092  47.283  59.964  0.00  0.00     0.255 C 
HETATM   31  O   UNK N   1      27.223  48.020  60.412  0.00  0.00    -0.266 OA
HETATM   32  C   UNK N   1      29.230  47.864  59.190  0.00  0.00     0.126 C 
ENDBRANCH  29  30
ENDBRANCH   8  29
BRANCH  16  33
HETATM   33  C   UNK N   1      27.364  38.401  53.710  0.00  0.00    -0.004 A 
HETATM   34  C   UNK N   1      26.139  37.842  53.400  0.00  0.00     0.151 A 
HETATM   35  O   UNK N   1      26.302  36.566  53.132  0.00  0.00    -0.334 OA
HETATM   36  C   UNK N   1      27.576  36.260  53.248  0.00  0.00     0.142 A 
HETATM   37  C   UNK N   1      28.290  37.385  53.605  0.00  0.00     0.036 A 
ENDBRANCH  16  33
TORSDOF 6
ENDMDL
