MODEL 1
REMARK VINA RESULT:      -8.5      0.000      0.000
REMARK  4 active torsions:
REMARK  status: ('A' for Active; 'I' for Inactive)
REMARK    1  A    between atoms: C_10  and  O_12 
REMARK    2  A    between atoms: O_12  and  C_13 
REMARK    3  A    between atoms: C_13  and  C_14 
REMARK    4  A    between atoms: C_18  and  O_19 
ROOT
HETATM    1  C   UNK N   1      40.706  47.188  47.385  0.00  0.00     0.047 C 
HETATM    2  C   UNK N   1      40.830  45.803  48.157  0.00  0.00    -0.030 C 
HETATM    3  C   UNK N   1      41.441  46.122  49.594  0.00  0.00     0.005 C 
HETATM    4  C   UNK N   1      41.397  44.945  50.665  0.00  0.00    -0.017 C 
HETATM    5  C   UNK N   1      39.946  44.357  50.703  0.00  0.00     0.126 C 
HETATM    6  C   UNK N   1      39.434  43.961  49.313  0.00  0.00     0.033 C 
HETATM    7  C   UNK N   1      39.426  45.170  48.373  0.00  0.00     0.013 C 
HETATM    8  C   UNK N   1      42.439  43.820  50.431  0.00  0.00     0.018 C 
HETATM    9  C   UNK N   1      41.700  45.532  52.074  0.00  0.00     0.018 C 
HETATM   10  C   UNK N   1      42.839  46.803  49.466  0.00  0.00     0.010 C 
HETATM   11  C   UNK N   1      42.755  48.095  48.650  0.00  0.00     0.034 C 
HETATM   12  C   UNK N   1      42.097  47.825  47.326  0.00  0.00    -0.082 C 
HETATM   13  C   UNK N   1      42.742  48.136  46.182  0.00  0.00     0.015 C 
HETATM   14  C   UNK N   1      41.695  44.831  47.294  0.00  0.00     0.016 C 
ENDROOT
BRANCH   1  15
HETATM   15  C   UNK N   1      39.990  47.143  46.009  0.00  0.00     0.185 C 
BRANCH  15  16
HETATM   16  O   UNK N   1      39.273  48.304  45.785  0.00  0.00    -0.349 OA
BRANCH  16  17
HETATM   17  C   UNK N   1      38.669  48.641  44.614  0.00  0.00     0.087 A 
HETATM   18  C   UNK N   1      39.114  49.766  43.893  0.00  0.00     0.031 A 
HETATM   19  C   UNK N   1      38.455  50.098  42.684  0.00  0.00     0.092 A 
HETATM   20  C   UNK N   1      40.184  50.567  44.337  0.00  0.00     0.017 A 
HETATM   21  O   UNK N   1      37.441  49.360  42.245  0.00  0.00    -0.275 OA
HETATM   22  C   UNK N   1      38.870  51.211  41.946  0.00  0.00     0.038 A 
HETATM   23  C   UNK N   1      36.995  48.292  42.900  0.00  0.00     0.290 A 
HETATM   24  O   UNK N   1      36.062  47.655  42.451  0.00  0.00    -0.260 OA
HETATM   25  C   UNK N   1      37.592  47.899  44.101  0.00  0.00     0.120 A 
HETATM   26  C   UNK N   1      39.931  51.999  42.396  0.00  0.00     0.003 A 
HETATM   27  C   UNK N   1      40.587  51.679  43.588  0.00  0.00     0.001 A 
ENDBRANCH  16  17
ENDBRANCH  15  16
ENDBRANCH   1  15
BRANCH   5  28
HETATM   28  O   UNK N   1      39.870  43.228  51.538  0.00  0.00    -0.395 OA
HETATM   29  H   UNK N   1      39.894  42.423  50.959  0.00  0.00     0.210 HD
ENDBRANCH   5  28
TORSDOF 4
ENDMDL
MODEL 2
REMARK VINA RESULT:      -7.4      1.129      2.420
REMARK  4 active torsions:
REMARK  status: ('A' for Active; 'I' for Inactive)
REMARK    1  A    between atoms: C_10  and  O_12 
REMARK    2  A    between atoms: O_12  and  C_13 
REMARK    3  A    between atoms: C_13  and  C_14 
REMARK    4  A    between atoms: C_18  and  O_19 
ROOT
HETATM    1  C   UNK N   1      40.964  47.595  47.415  0.00  0.00     0.047 C 
HETATM    2  C   UNK N   1      40.912  46.117  48.000  0.00  0.00    -0.030 C 
HETATM    3  C   UNK N   1      41.490  46.182  49.483  0.00  0.00     0.005 C 
HETATM    4  C   UNK N   1      41.280  44.889  50.387  0.00  0.00    -0.017 C 
HETATM    5  C   UNK N   1      39.776  44.460  50.305  0.00  0.00     0.126 C 
HETATM    6  C   UNK N   1      39.286  44.302  48.861  0.00  0.00     0.033 C 
HETATM    7  C   UNK N   1      39.442  45.617  48.089  0.00  0.00     0.013 C 
HETATM    8  C   UNK N   1      42.210  43.698  50.037  0.00  0.00     0.018 C 
HETATM    9  C   UNK N   1      41.581  45.254  51.869  0.00  0.00     0.018 C 
HETATM   10  C   UNK N   1      42.955  46.721  49.487  0.00  0.00     0.010 C 
HETATM   11  C   UNK N   1      43.038  48.108  48.847  0.00  0.00     0.034 C 
HETATM   12  C   UNK N   1      42.414  48.082  47.480  0.00  0.00    -0.082 C 
HETATM   13  C   UNK N   1      43.135  48.467  46.407  0.00  0.00     0.015 C 
HETATM   14  C   UNK N   1      41.708  45.178  47.041  0.00  0.00     0.016 C 
ENDROOT
BRANCH   1  15
HETATM   15  C   UNK N   1      40.306  47.805  46.024  0.00  0.00     0.185 C 
BRANCH  15  16
HETATM   16  O   UNK N   1      39.740  49.063  45.927  0.00  0.00    -0.349 OA
BRANCH  16  17
HETATM   17  C   UNK N   1      39.486  49.723  44.766  0.00  0.00     0.087 A 
HETATM   18  C   UNK N   1      38.473  49.262  43.903  0.00  0.00     0.031 A 
HETATM   19  C   UNK N   1      38.243  49.964  42.695  0.00  0.00     0.092 A 
HETATM   20  C   UNK N   1      37.693  48.128  44.201  0.00  0.00     0.017 A 
HETATM   21  O   UNK N   1      38.967  51.035  42.389  0.00  0.00    -0.275 OA
HETATM   22  C   UNK N   1      37.247  49.530  41.814  0.00  0.00     0.038 A 
HETATM   23  C   UNK N   1      39.931  51.498  43.181  0.00  0.00     0.290 A 
HETATM   24  O   UNK N   1      40.563  52.482  42.849  0.00  0.00    -0.260 OA
HETATM   25  C   UNK N   1      40.221  50.860  44.390  0.00  0.00     0.120 A 
HETATM   26  C   UNK N   1      36.480  48.404  42.119  0.00  0.00     0.003 A 
HETATM   27  C   UNK N   1      36.701  47.704  43.308  0.00  0.00     0.001 A 
ENDBRANCH  16  17
ENDBRANCH  15  16
ENDBRANCH   1  15
BRANCH   5  28
HETATM   28  O   UNK N   1      39.549  43.247  50.981  0.00  0.00    -0.395 OA
HETATM   29  H   UNK N   1      39.911  42.516  50.417  0.00  0.00     0.210 HD
ENDBRANCH   5  28
TORSDOF 4
ENDMDL
MODEL 3
REMARK VINA RESULT:      -6.8     14.737     17.939
REMARK  4 active torsions:
REMARK  status: ('A' for Active; 'I' for Inactive)
REMARK    1  A    between atoms: C_10  and  O_12 
REMARK    2  A    between atoms: O_12  and  C_13 
REMARK    3  A    between atoms: C_13  and  C_14 
REMARK    4  A    between atoms: C_18  and  O_19 
ROOT
HETATM    1  C   UNK N   1      32.354  44.474  62.523  0.00  0.00     0.047 C 
HETATM    2  C   UNK N   1      32.081  43.630  61.204  0.00  0.00    -0.030 C 
HETATM    3  C   UNK N   1      31.421  44.620  60.144  0.00  0.00     0.005 C 
HETATM    4  C   UNK N   1      31.315  44.093  58.646  0.00  0.00    -0.017 C 
HETATM    5  C   UNK N   1      32.712  43.532  58.213  0.00  0.00     0.126 C 
HETATM    6  C   UNK N   1      33.265  42.501  59.203  0.00  0.00     0.033 C 
HETATM    7  C   UNK N   1      33.418  43.116  60.598  0.00  0.00     0.013 C 
HETATM    8  C   UNK N   1      30.202  43.039  58.409  0.00  0.00     0.018 C 
HETATM    9  C   UNK N   1      30.983  45.292  57.711  0.00  0.00     0.018 C 
HETATM   10  C   UNK N   1      30.089  45.219  60.695  0.00  0.00     0.010 C 
HETATM   11  C   UNK N   1      30.318  45.962  62.013  0.00  0.00     0.034 C 
HETATM   12  C   UNK N   1      31.023  45.066  62.993  0.00  0.00    -0.082 C 
HETATM   13  C   UNK N   1      30.467  44.824  64.199  0.00  0.00     0.015 C 
HETATM   14  C   UNK N   1      31.191  42.403  61.577  0.00  0.00     0.016 C 
ENDROOT
BRANCH   1  15
HETATM   15  C   UNK N   1      33.138  43.750  63.650  0.00  0.00     0.185 C 
BRANCH  15  16
HETATM   16  O   UNK N   1      34.005  44.617  64.289  0.00  0.00    -0.349 OA
BRANCH  16  17
HETATM   17  C   UNK N   1      35.040  45.271  63.699  0.00  0.00     0.087 A 
HETATM   18  C   UNK N   1      34.994  46.671  63.550  0.00  0.00     0.031 A 
HETATM   19  C   UNK N   1      36.083  47.319  62.918  0.00  0.00     0.092 A 
HETATM   20  C   UNK N   1      33.903  47.437  64.003  0.00  0.00     0.017 A 
HETATM   21  O   UNK N   1      37.123  46.619  62.480  0.00  0.00    -0.275 OA
HETATM   22  C   UNK N   1      36.066  48.709  62.752  0.00  0.00     0.038 A 
HETATM   23  C   UNK N   1      37.199  45.296  62.603  0.00  0.00     0.290 A 
HETATM   24  O   UNK N   1      38.175  44.707  62.182  0.00  0.00    -0.260 OA
HETATM   25  C   UNK N   1      36.166  44.582  63.214  0.00  0.00     0.120 A 
HETATM   26  C   UNK N   1      34.979  49.459  63.204  0.00  0.00     0.003 A 
HETATM   27  C   UNK N   1      33.900  48.826  63.828  0.00  0.00     0.001 A 
ENDBRANCH  16  17
ENDBRANCH  15  16
ENDBRANCH   1  15
BRANCH   5  28
HETATM   28  O   UNK N   1      32.654  42.933  56.941  0.00  0.00    -0.395 OA
HETATM   29  H   UNK N   1      32.532  43.656  56.273  0.00  0.00     0.210 HD
ENDBRANCH   5  28
TORSDOF 4
ENDMDL
MODEL 4
REMARK VINA RESULT:      -6.7     15.379     17.799
REMARK  4 active torsions:
REMARK  status: ('A' for Active; 'I' for Inactive)
REMARK    1  A    between atoms: C_10  and  O_12 
REMARK    2  A    between atoms: O_12  and  C_13 
REMARK    3  A    between atoms: C_13  and  C_14 
REMARK    4  A    between atoms: C_18  and  O_19 
ROOT
HETATM    1  C   UNK N   1      35.347  45.698  62.799  0.00  0.00     0.047 C 
HETATM    2  C   UNK N   1      34.978  46.823  63.860  0.00  0.00    -0.030 C 
HETATM    3  C   UNK N   1      35.150  48.229  63.130  0.00  0.00     0.005 C 
HETATM    4  C   UNK N   1      34.566  49.502  63.886  0.00  0.00    -0.017 C 
HETATM    5  C   UNK N   1      33.098  49.189  64.332  0.00  0.00     0.126 C 
HETATM    6  C   UNK N   1      32.989  47.882  65.126  0.00  0.00     0.033 C 
HETATM    7  C   UNK N   1      33.489  46.698  64.293  0.00  0.00     0.013 C 
HETATM    8  C   UNK N   1      35.415  49.983  65.092  0.00  0.00     0.018 C 
HETATM    9  C   UNK N   1      34.508  50.698  62.892  0.00  0.00     0.018 C 
HETATM   10  C   UNK N   1      36.614  48.417  62.621  0.00  0.00     0.010 C 
HETATM   11  C   UNK N   1      37.018  47.293  61.665  0.00  0.00     0.034 C 
HETATM   12  C   UNK N   1      36.775  45.957  62.309  0.00  0.00    -0.082 C 
HETATM   13  C   UNK N   1      37.791  45.078  62.432  0.00  0.00     0.015 C 
HETATM   14  C   UNK N   1      35.886  46.636  65.116  0.00  0.00     0.016 C 
ENDROOT
BRANCH   1  15
HETATM   15  C   UNK N   1      35.106  44.231  63.243  0.00  0.00     0.185 C 
BRANCH  15  16
HETATM   16  O   UNK N   1      33.837  43.808  62.891  0.00  0.00    -0.349 OA
BRANCH  16  17
HETATM   17  C   UNK N   1      33.392  43.633  61.618  0.00  0.00     0.087 A 
HETATM   18  C   UNK N   1      32.076  44.000  61.277  0.00  0.00     0.031 A 
HETATM   19  C   UNK N   1      31.639  43.792  59.946  0.00  0.00     0.092 A 
HETATM   20  C   UNK N   1      31.186  44.559  62.215  0.00  0.00     0.017 A 
HETATM   21  O   UNK N   1      32.458  43.264  59.043  0.00  0.00    -0.275 OA
HETATM   22  C   UNK N   1      30.336  44.143  59.576  0.00  0.00     0.038 A 
HETATM   23  C   UNK N   1      33.706  42.906  59.330  0.00  0.00     0.290 A 
HETATM   24  O   UNK N   1      34.410  42.425  58.463  0.00  0.00    -0.260 OA
HETATM   25  C   UNK N   1      34.212  43.078  60.621  0.00  0.00     0.120 A 
HETATM   26  C   UNK N   1      29.463  44.695  60.515  0.00  0.00     0.003 A 
HETATM   27  C   UNK N   1      29.885  44.903  61.831  0.00  0.00     0.001 A 
ENDBRANCH  16  17
ENDBRANCH  15  16
ENDBRANCH   1  15
BRANCH   5  28
HETATM   28  O   UNK N   1      32.567  50.227  65.119  0.00  0.00    -0.395 OA
HETATM   29  H   UNK N   1      32.750  50.009  66.068  0.00  0.00     0.210 HD
ENDBRANCH   5  28
TORSDOF 4
ENDMDL
MODEL 5
REMARK VINA RESULT:      -6.1     13.748     16.819
REMARK  4 active torsions:
REMARK  status: ('A' for Active; 'I' for Inactive)
REMARK    1  A    between atoms: C_10  and  O_12 
REMARK    2  A    between atoms: O_12  and  C_13 
REMARK    3  A    between atoms: C_13  and  C_14 
REMARK    4  A    between atoms: C_18  and  O_19 
ROOT
HETATM    1  C   UNK N   1      27.726  41.553  56.778  0.00  0.00     0.047 C 
HETATM    2  C   UNK N   1      28.198  41.243  55.291  0.00  0.00    -0.030 C 
HETATM    3  C   UNK N   1      27.204  42.016  54.314  0.00  0.00     0.005 C 
HETATM    4  C   UNK N   1      27.632  42.103  52.784  0.00  0.00    -0.017 C 
HETATM    5  C   UNK N   1      29.116  42.595  52.706  0.00  0.00     0.126 C 
HETATM    6  C   UNK N   1      30.062  41.757  53.575  0.00  0.00     0.033 C 
HETATM    7  C   UNK N   1      29.628  41.801  55.044  0.00  0.00     0.013 C 
HETATM    8  C   UNK N   1      27.448  40.785  51.986  0.00  0.00     0.018 C 
HETATM    9  C   UNK N   1      26.748  43.168  52.072  0.00  0.00     0.018 C 
HETATM   10  C   UNK N   1      25.732  41.545  54.530  0.00  0.00     0.010 C 
HETATM   11  C   UNK N   1      25.288  41.754  55.980  0.00  0.00     0.034 C 
HETATM   12  C   UNK N   1      26.268  41.105  56.917  0.00  0.00    -0.082 C 
HETATM   13  C   UNK N   1      25.838  40.183  57.802  0.00  0.00     0.015 C 
HETATM   14  C   UNK N   1      28.219  39.695  55.091  0.00  0.00     0.016 C 
ENDROOT
BRANCH   1  15
HETATM   15  C   UNK N   1      28.644  41.022  57.911  0.00  0.00     0.185 C 
BRANCH  15  16
HETATM   16  O   UNK N   1      29.082  42.055  58.720  0.00  0.00    -0.349 OA
BRANCH  16  17
HETATM   17  C   UNK N   1      30.154  42.852  58.466  0.00  0.00     0.087 A 
HETATM   18  C   UNK N   1      29.966  44.229  58.233  0.00  0.00     0.031 A 
HETATM   19  C   UNK N   1      31.102  45.028  57.958  0.00  0.00     0.092 A 
HETATM   20  C   UNK N   1      28.692  44.827  58.261  0.00  0.00     0.017 A 
HETATM   21  O   UNK N   1      32.315  44.487  57.923  0.00  0.00    -0.275 OA
HETATM   22  C   UNK N   1      30.950  46.399  57.719  0.00  0.00     0.038 A 
HETATM   23  C   UNK N   1      32.528  43.192  58.138  0.00  0.00     0.290 A 
HETATM   24  O   UNK N   1      33.660  42.752  58.092  0.00  0.00    -0.260 OA
HETATM   25  C   UNK N   1      31.460  42.336  58.415  0.00  0.00     0.120 A 
HETATM   26  C   UNK N   1      29.681  46.981  57.748  0.00  0.00     0.003 A 
HETATM   27  C   UNK N   1      28.555  46.199  58.018  0.00  0.00     0.001 A 
ENDBRANCH  16  17
ENDBRANCH  15  16
ENDBRANCH   1  15
BRANCH   5  28
HETATM   28  O   UNK N   1      29.597  42.571  51.385  0.00  0.00    -0.395 OA
HETATM   29  H   UNK N   1      28.827  42.393  50.786  0.00  0.00     0.210 HD
ENDBRANCH   5  28
TORSDOF 4
ENDMDL
MODEL 6
REMARK VINA RESULT:      -6.0     15.100     17.868
REMARK  4 active torsions:
REMARK  status: ('A' for Active; 'I' for Inactive)
REMARK    1  A    between atoms: C_10  and  O_12 
REMARK    2  A    between atoms: O_12  and  C_13 
REMARK    3  A    between atoms: C_13  and  C_14 
REMARK    4  A    between atoms: C_18  and  O_19 
ROOT
HETATM    1  C   UNK N   1      32.221  45.880  63.108  0.00  0.00     0.047 C 
HETATM    2  C   UNK N   1      33.077  46.880  64.001  0.00  0.00    -0.030 C 
HETATM    3  C   UNK N   1      34.534  46.949  63.359  0.00  0.00     0.005 C 
HETATM    4  C   UNK N   1      35.496  48.098  63.894  0.00  0.00    -0.017 C 
HETATM    5  C   UNK N   1      34.718  49.457  63.862  0.00  0.00     0.126 C 
HETATM    6  C   UNK N   1      33.368  49.381  64.585  0.00  0.00     0.033 C 
HETATM    7  C   UNK N   1      32.473  48.312  63.950  0.00  0.00     0.013 C 
HETATM    8  C   UNK N   1      36.090  47.839  65.304  0.00  0.00     0.018 C 
HETATM    9  C   UNK N   1      36.710  48.232  62.930  0.00  0.00     0.018 C 
HETATM   10  C   UNK N   1      35.198  45.536  63.330  0.00  0.00     0.010 C 
HETATM   11  C   UNK N   1      34.343  44.537  62.548  0.00  0.00     0.034 C 
HETATM   12  C   UNK N   1      32.940  44.528  63.086  0.00  0.00    -0.082 C 
HETATM   13  C   UNK N   1      32.396  43.372  63.520  0.00  0.00     0.015 C 
HETATM   14  C   UNK N   1      33.050  46.372  65.477  0.00  0.00     0.016 C 
ENDROOT
BRANCH   1  15
HETATM   15  C   UNK N   1      30.713  45.771  63.458  0.00  0.00     0.185 C 
BRANCH  15  16
HETATM   16  O   UNK N   1      29.960  45.499  62.330  0.00  0.00    -0.349 OA
BRANCH  16  17
HETATM   17  C   UNK N   1      29.912  46.272  61.212  0.00  0.00     0.087 A 
HETATM   18  C   UNK N   1      30.420  45.780  59.994  0.00  0.00     0.031 A 
HETATM   19  C   UNK N   1      30.366  46.615  58.852  0.00  0.00     0.092 A 
HETATM   20  C   UNK N   1      30.980  44.492  59.881  0.00  0.00     0.017 A 
HETATM   21  O   UNK N   1      29.845  47.834  58.933  0.00  0.00    -0.275 OA
HETATM   22  C   UNK N   1      30.866  46.157  57.628  0.00  0.00     0.038 A 
HETATM   23  C   UNK N   1      29.356  48.331  60.066  0.00  0.00     0.290 A 
HETATM   24  O   UNK N   1      28.893  49.455  60.081  0.00  0.00    -0.260 OA
HETATM   25  C   UNK N   1      29.373  47.570  61.238  0.00  0.00     0.120 A 
HETATM   26  C   UNK N   1      31.420  44.879  57.528  0.00  0.00     0.003 A 
HETATM   27  C   UNK N   1      31.478  44.049  58.651  0.00  0.00     0.001 A 
ENDBRANCH  16  17
ENDBRANCH  15  16
ENDBRANCH   1  15
BRANCH   5  28
HETATM   28  O   UNK N   1      35.470  50.494  64.444  0.00  0.00    -0.395 OA
HETATM   29  H   UNK N   1      35.256  51.331  63.957  0.00  0.00     0.210 HD
ENDBRANCH   5  28
TORSDOF 4
ENDMDL
MODEL 7
REMARK VINA RESULT:      -6.0     14.046     16.288
REMARK  4 active torsions:
REMARK  status: ('A' for Active; 'I' for Inactive)
REMARK    1  A    between atoms: C_10  and  O_12 
REMARK    2  A    between atoms: O_12  and  C_13 
REMARK    3  A    between atoms: C_13  and  C_14 
REMARK    4  A    between atoms: C_18  and  O_19 
ROOT
HETATM    1  C   UNK N   1      28.866  43.643  57.541  0.00  0.00     0.047 C 
HETATM    2  C   UNK N   1      28.586  45.030  58.268  0.00  0.00    -0.030 C 
HETATM    3  C   UNK N   1      29.665  46.069  57.724  0.00  0.00     0.005 C 
HETATM    4  C   UNK N   1      29.421  47.601  58.078  0.00  0.00    -0.017 C 
HETATM    5  C   UNK N   1      27.942  47.968  57.720  0.00  0.00     0.126 C 
HETATM    6  C   UNK N   1      26.926  47.009  58.351  0.00  0.00     0.033 C 
HETATM    7  C   UNK N   1      27.179  45.571  57.887  0.00  0.00     0.013 C 
HETATM    8  C   UNK N   1      29.741  47.983  59.547  0.00  0.00     0.018 C 
HETATM    9  C   UNK N   1      30.349  48.479  57.190  0.00  0.00     0.018 C 
HETATM   10  C   UNK N   1      31.115  45.576  58.026  0.00  0.00     0.010 C 
HETATM   11  C   UNK N   1      31.375  44.200  57.407  0.00  0.00     0.034 C 
HETATM   12  C   UNK N   1      30.311  43.232  57.842  0.00  0.00    -0.082 C 
HETATM   13  C   UNK N   1      30.660  42.087  58.464  0.00  0.00     0.015 C 
HETATM   14  C   UNK N   1      28.639  44.799  59.811  0.00  0.00     0.016 C 
ENDROOT
BRANCH   1  15
HETATM   15  C   UNK N   1      27.837  42.512  57.804  0.00  0.00     0.185 C 
BRANCH  15  16
HETATM   16  O   UNK N   1      27.444  41.913  56.621  0.00  0.00    -0.349 OA
BRANCH  16  17
HETATM   17  C   UNK N   1      26.999  42.571  55.517  0.00  0.00     0.087 A 
HETATM   18  C   UNK N   1      27.763  42.551  54.333  0.00  0.00     0.031 A 
HETATM   19  C   UNK N   1      27.278  43.257  53.205  0.00  0.00     0.092 A 
HETATM   20  C   UNK N   1      28.986  41.859  54.241  0.00  0.00     0.017 A 
HETATM   21  O   UNK N   1      26.128  43.919  53.267  0.00  0.00    -0.275 OA
HETATM   22  C   UNK N   1      28.014  43.260  52.015  0.00  0.00     0.038 A 
HETATM   23  C   UNK N   1      25.383  43.959  54.368  0.00  0.00     0.290 A 
HETATM   24  O   UNK N   1      24.340  44.583  54.368  0.00  0.00    -0.260 OA
HETATM   25  C   UNK N   1      25.792  43.289  55.524  0.00  0.00     0.120 A 
HETATM   26  C   UNK N   1      29.226  42.572  51.936  0.00  0.00     0.003 A 
HETATM   27  C   UNK N   1      29.712  41.873  53.044  0.00  0.00     0.001 A 
ENDBRANCH  16  17
ENDBRANCH  15  16
ENDBRANCH   1  15
BRANCH   5  28
HETATM   28  O   UNK N   1      27.624  49.277  58.128  0.00  0.00    -0.395 OA
HETATM   29  H   UNK N   1      28.452  49.692  58.482  0.00  0.00     0.210 HD
ENDBRANCH   5  28
TORSDOF 4
ENDMDL
MODEL 8
REMARK VINA RESULT:      -5.9     14.473     16.839
REMARK  4 active torsions:
REMARK  status: ('A' for Active; 'I' for Inactive)
REMARK    1  A    between atoms: C_10  and  O_12 
REMARK    2  A    between atoms: O_12  and  C_13 
REMARK    3  A    between atoms: C_13  and  C_14 
REMARK    4  A    between atoms: C_18  and  O_19 
ROOT
HETATM    1  C   UNK N   1      28.572  45.712  58.090  0.00  0.00     0.047 C 
HETATM    2  C   UNK N   1      28.152  47.226  58.335  0.00  0.00    -0.030 C 
HETATM    3  C   UNK N   1      29.010  48.118  57.331  0.00  0.00     0.005 C 
HETATM    4  C   UNK N   1      28.570  49.639  57.176  0.00  0.00    -0.017 C 
HETATM    5  C   UNK N   1      27.027  49.691  56.918  0.00  0.00     0.126 C 
HETATM    6  C   UNK N   1      26.227  48.911  57.969  0.00  0.00     0.033 C 
HETATM    7  C   UNK N   1      26.651  47.439  57.989  0.00  0.00     0.013 C 
HETATM    8  C   UNK N   1      28.959  50.549  58.371  0.00  0.00     0.018 C 
HETATM    9  C   UNK N   1      29.273  50.243  55.925  0.00  0.00     0.018 C 
HETATM   10  C   UNK N   1      30.538  47.926  57.582  0.00  0.00     0.010 C 
HETATM   11  C   UNK N   1      30.946  46.458  57.436  0.00  0.00     0.034 C 
HETATM   12  C   UNK N   1      30.083  45.595  58.313  0.00  0.00    -0.082 C 
HETATM   13  C   UNK N   1      30.655  44.790  59.232  0.00  0.00     0.015 C 
HETATM   14  C   UNK N   1      28.376  47.563  59.843  0.00  0.00     0.016 C 
ENDROOT
BRANCH   1  15
HETATM   15  C   UNK N   1      27.752  44.641  58.857  0.00  0.00     0.185 C 
BRANCH  15  16
HETATM   16  O   UNK N   1      27.756  43.434  58.181  0.00  0.00    -0.349 OA
BRANCH  16  17
HETATM   17  C   UNK N   1      27.409  43.262  56.877  0.00  0.00     0.087 A 
HETATM   18  C   UNK N   1      28.343  42.734  55.966  0.00  0.00     0.031 A 
HETATM   19  C   UNK N   1      27.954  42.580  54.613  0.00  0.00     0.092 A 
HETATM   20  C   UNK N   1      29.644  42.361  56.356  0.00  0.00     0.017 A 
HETATM   21  O   UNK N   1      26.734  42.926  54.219  0.00  0.00    -0.275 OA
HETATM   22  C   UNK N   1      28.860  42.061  53.681  0.00  0.00     0.038 A 
HETATM   23  C   UNK N   1      25.828  43.429  55.052  0.00  0.00     0.290 A 
HETATM   24  O   UNK N   1      24.726  43.730  54.635  0.00  0.00    -0.260 OA
HETATM   25  C   UNK N   1      26.133  43.612  56.403  0.00  0.00     0.120 A 
HETATM   26  C   UNK N   1      30.147  41.695  54.080  0.00  0.00     0.003 A 
HETATM   27  C   UNK N   1      30.539  41.845  55.413  0.00  0.00     0.001 A 
ENDBRANCH  16  17
ENDBRANCH  15  16
ENDBRANCH   1  15
BRANCH   5  28
HETATM   28  O   UNK N   1      26.553  51.015  56.899  0.00  0.00    -0.395 OA
HETATM   29  H   UNK N   1      27.335  51.617  56.995  0.00  0.00     0.210 HD
ENDBRANCH   5  28
TORSDOF 4
ENDMDL
MODEL 9
REMARK VINA RESULT:      -5.9     13.979     16.179
REMARK  4 active torsions:
REMARK  status: ('A' for Active; 'I' for Inactive)
REMARK    1  A    between atoms: C_10  and  O_12 
REMARK    2  A    between atoms: O_12  and  C_13 
REMARK    3  A    between atoms: C_13  and  C_14 
REMARK    4  A    between atoms: C_18  and  O_19 
ROOT
HETATM    1  C   UNK N   1      29.137  43.795  57.757  0.00  0.00     0.047 C 
HETATM    2  C   UNK N   1      28.590  45.178  58.320  0.00  0.00    -0.030 C 
HETATM    3  C   UNK N   1      29.580  46.316  57.808  0.00  0.00     0.005 C 
HETATM    4  C   UNK N   1      29.094  47.820  57.995  0.00  0.00    -0.017 C 
HETATM    5  C   UNK N   1      27.634  47.947  57.443  0.00  0.00     0.126 C 
HETATM    6  C   UNK N   1      26.685  46.902  58.041  0.00  0.00     0.033 C 
HETATM    7  C   UNK N   1      27.180  45.484  57.739  0.00  0.00     0.013 C 
HETATM    8  C   UNK N   1      29.179  48.351  59.450  0.00  0.00     0.018 C 
HETATM    9  C   UNK N   1      30.000  48.753  57.139  0.00  0.00     0.018 C 
HETATM   10  C   UNK N   1      31.034  46.058  58.313  0.00  0.00     0.010 C 
HETATM   11  C   UNK N   1      31.547  44.691  57.853  0.00  0.00     0.034 C 
HETATM   12  C   UNK N   1      30.576  43.616  58.251  0.00  0.00    -0.082 C 
HETATM   13  C   UNK N   1      30.995  42.582  59.009  0.00  0.00     0.015 C 
HETATM   14  C   UNK N   1      28.483  45.071  59.874  0.00  0.00     0.016 C 
ENDROOT
BRANCH   1  15
HETATM   15  C   UNK N   1      28.242  42.552  58.005  0.00  0.00     0.185 C 
BRANCH  15  16
HETATM   16  O   UNK N   1      27.826  41.993  56.810  0.00  0.00    -0.349 OA
BRANCH  16  17
HETATM   17  C   UNK N   1      28.516  42.036  55.639  0.00  0.00     0.087 A 
HETATM   18  C   UNK N   1      27.899  42.542  54.478  0.00  0.00     0.031 A 
HETATM   19  C   UNK N   1      28.641  42.560  53.272  0.00  0.00     0.092 A 
HETATM   20  C   UNK N   1      26.575  43.021  54.481  0.00  0.00     0.017 A 
HETATM   21  O   UNK N   1      29.891  42.111  53.243  0.00  0.00    -0.275 OA
HETATM   22  C   UNK N   1      28.056  43.052  52.100  0.00  0.00     0.038 A 
HETATM   23  C   UNK N   1      30.504  41.627  54.320  0.00  0.00     0.290 A 
HETATM   24  O   UNK N   1      31.649  41.228  54.233  0.00  0.00    -0.260 OA
HETATM   25  C   UNK N   1      29.840  41.574  55.548  0.00  0.00     0.120 A 
HETATM   26  C   UNK N   1      26.742  43.524  52.114  0.00  0.00     0.003 A 
HETATM   27  C   UNK N   1      26.003  43.509  53.300  0.00  0.00     0.001 A 
ENDBRANCH  16  17
ENDBRANCH  15  16
ENDBRANCH   1  15
BRANCH   5  28
HETATM   28  O   UNK N   1      27.098  49.223  57.694  0.00  0.00    -0.395 OA
HETATM   29  H   UNK N   1      26.951  49.301  58.671  0.00  0.00     0.210 HD
ENDBRANCH   5  28
TORSDOF 4
ENDMDL
