MODEL 1
REMARK VINA RESULT:      -7.1      0.000      0.000
REMARK  7 active torsions:
REMARK  status: ('A' for Active; 'I' for Inactive)
REMARK    1  A    between atoms: C_8  and  O_10 
REMARK    2  A    between atoms: O_10  and  C_11 
REMARK    3  A    between atoms: C_11  and  C_12 
REMARK    4  A    between atoms: C_13  and  C_22 
REMARK    5  A    between atoms: C_22  and  C_23 
REMARK    6  A    between atoms: C_23  and  C_24 
REMARK    7  A    between atoms: C_24  and  O_26 
ROOT
HETATM    1  C   UNK N   1      28.185  55.594  41.716  0.00  0.00    -0.011 C 
HETATM    2  C   UNK N   1      27.988  54.218  40.944  0.00  0.00     0.026 C 
HETATM    3  C   UNK N   1      28.388  54.434  39.468  0.00  0.00    -0.073 C 
HETATM    4  C   UNK N   1      29.422  53.747  38.850  0.00  0.00    -0.085 C 
HETATM    5  C   UNK N   1      30.222  52.644  39.523  0.00  0.00     0.043 C 
HETATM    6  C   UNK N   1      29.883  54.027  37.430  0.00  0.00     0.043 C 
HETATM    7  C   UNK N   1      27.571  55.513  38.762  0.00  0.00     0.035 C 
HETATM    8  C   UNK N   1      27.738  56.846  39.491  0.00  0.00     0.009 C 
HETATM    9  C   UNK N   1      27.357  56.733  40.985  0.00  0.00    -0.007 C 
HETATM   10  C   UNK N   1      27.440  58.136  41.622  0.00  0.00     0.011 C 
HETATM   11  C   UNK N   1      27.712  55.453  43.187  0.00  0.00     0.018 C 
ENDROOT
BRANCH   1  12
HETATM   12  C   UNK N   1      29.722  55.882  41.747  0.00  0.00     0.185 C 
BRANCH  12  13
HETATM   13  O   UNK N   1      30.245  55.836  43.027  0.00  0.00    -0.350 OA
BRANCH  13  14
HETATM   14  C   UNK N   1      31.146  54.912  43.460  0.00  0.00     0.071 A 
HETATM   15  C   UNK N   1      32.126  55.306  44.384  0.00  0.00     0.038 A 
HETATM   16  C   UNK N   1      33.074  54.389  44.850  0.00  0.00     0.017 A 
HETATM   17  C   UNK N   1      33.048  53.064  44.397  0.00  0.00    -0.002 A 
HETATM   18  C   UNK N   1      32.066  52.656  43.469  0.00  0.00     0.092 A 
HETATM   19  C   UNK N   1      33.978  52.119  44.840  0.00  0.00     0.020 A 
HETATM   20  O   UNK N   1      32.033  51.399  43.034  0.00  0.00    -0.275 OA
HETATM   21  C   UNK N   1      31.124  53.576  43.005  0.00  0.00     0.075 A 
HETATM   22  C   UNK N   1      32.906  50.480  43.439  0.00  0.00     0.288 A 
HETATM   23  O   UNK N   1      32.829  49.345  43.009  0.00  0.00    -0.260 OA
HETATM   24  C   UNK N   1      33.909  50.814  44.357  0.00  0.00     0.083 A 
ENDBRANCH  13  14
ENDBRANCH  12  13
ENDBRANCH   1  12
BRANCH   2  25
HETATM   25  C   UNK N   1      26.554  53.614  41.055  0.00  0.00     0.020 C 
BRANCH  25  26
HETATM   26  C   UNK N   1      26.270  52.422  40.119  0.00  0.00     0.110 C 
BRANCH  26  27
HETATM   27  C   UNK N   1      26.588  51.080  40.718  0.00  0.00     0.139 C 
HETATM   28  O   UNK N   1      27.536  50.430  40.303  0.00  0.00    -0.650 OA
BRANCH  27  29
HETATM   29  O   UNK N   1      25.853  50.616  41.751  0.00  0.00    -0.776 OA
HETATM   30  H   UNK N   1      25.161  49.952  41.619  0.00  0.00     0.167 HD
ENDBRANCH  27  29
ENDBRANCH  26  27
ENDBRANCH  25  26
ENDBRANCH   2  25
TORSDOF 7
ENDMDL
MODEL 2
REMARK VINA RESULT:      -5.8     17.438     20.735
REMARK  7 active torsions:
REMARK  status: ('A' for Active; 'I' for Inactive)
REMARK    1  A    between atoms: C_8  and  O_10 
REMARK    2  A    between atoms: O_10  and  C_11 
REMARK    3  A    between atoms: C_11  and  C_12 
REMARK    4  A    between atoms: C_13  and  C_22 
REMARK    5  A    between atoms: C_22  and  C_23 
REMARK    6  A    between atoms: C_23  and  C_24 
REMARK    7  A    between atoms: C_24  and  O_26 
ROOT
HETATM    1  C   UNK N   1      30.854  43.857  58.215  0.00  0.00    -0.011 C 
HETATM    2  C   UNK N   1      30.584  45.334  58.739  0.00  0.00     0.026 C 
HETATM    3  C   UNK N   1      29.231  45.341  59.482  0.00  0.00    -0.073 C 
HETATM    4  C   UNK N   1      29.099  45.665  60.824  0.00  0.00    -0.085 C 
HETATM    5  C   UNK N   1      30.252  46.136  61.694  0.00  0.00     0.043 C 
HETATM    6  C   UNK N   1      27.786  45.577  61.583  0.00  0.00     0.043 C 
HETATM    7  C   UNK N   1      28.052  44.906  58.614  0.00  0.00     0.035 C 
HETATM    8  C   UNK N   1      28.291  43.490  58.091  0.00  0.00     0.009 C 
HETATM    9  C   UNK N   1      29.629  43.381  57.325  0.00  0.00    -0.007 C 
HETATM   10  C   UNK N   1      29.743  41.961  56.733  0.00  0.00     0.011 C 
HETATM   11  C   UNK N   1      32.164  43.817  57.384  0.00  0.00     0.018 C 
ENDROOT
BRANCH   1  12
HETATM   12  C   UNK N   1      31.076  42.960  59.477  0.00  0.00     0.185 C 
BRANCH  12  13
HETATM   13  O   UNK N   1      32.411  42.679  59.700  0.00  0.00    -0.350 OA
BRANCH  13  14
HETATM   14  C   UNK N   1      33.148  43.190  60.723  0.00  0.00     0.071 A 
HETATM   15  C   UNK N   1      32.523  43.417  61.958  0.00  0.00     0.038 A 
HETATM   16  C   UNK N   1      33.244  43.947  63.034  0.00  0.00     0.017 A 
HETATM   17  C   UNK N   1      34.602  44.255  62.883  0.00  0.00    -0.002 A 
HETATM   18  C   UNK N   1      35.241  44.030  61.646  0.00  0.00     0.092 A 
HETATM   19  C   UNK N   1      35.354  44.785  63.935  0.00  0.00     0.020 A 
HETATM   20  O   UNK N   1      36.532  44.317  61.494  0.00  0.00    -0.275 OA
HETATM   21  C   UNK N   1      34.518  43.502  60.575  0.00  0.00     0.075 A 
HETATM   22  C   UNK N   1      37.272  44.823  62.478  0.00  0.00     0.288 A 
HETATM   23  O   UNK N   1      38.447  45.067  62.284  0.00  0.00    -0.260 OA
HETATM   24  C   UNK N   1      36.702  45.074  63.733  0.00  0.00     0.083 A 
ENDBRANCH  13  14
ENDBRANCH  12  13
ENDBRANCH   1  12
BRANCH   2  25
HETATM   25  C   UNK N   1      30.622  46.431  57.630  0.00  0.00     0.020 C 
BRANCH  25  26
HETATM   26  C   UNK N   1      30.129  47.824  58.068  0.00  0.00     0.110 C 
BRANCH  26  27
HETATM   27  C   UNK N   1      29.367  48.568  57.006  0.00  0.00     0.139 C 
HETATM   28  O   UNK N   1      29.821  49.598  56.531  0.00  0.00    -0.650 OA
BRANCH  27  29
HETATM   29  O   UNK N   1      28.202  48.067  56.542  0.00  0.00    -0.776 OA
HETATM   30  H   UNK N   1      27.625  48.587  55.965  0.00  0.00     0.167 HD
ENDBRANCH  27  29
ENDBRANCH  26  27
ENDBRANCH  25  26
ENDBRANCH   2  25
TORSDOF 7
ENDMDL
MODEL 3
REMARK VINA RESULT:      -5.7     10.570     14.844
REMARK  7 active torsions:
REMARK  status: ('A' for Active; 'I' for Inactive)
REMARK    1  A    between atoms: C_8  and  O_10 
REMARK    2  A    between atoms: O_10  and  C_11 
REMARK    3  A    between atoms: C_11  and  C_12 
REMARK    4  A    between atoms: C_13  and  C_22 
REMARK    5  A    between atoms: C_22  and  C_23 
REMARK    6  A    between atoms: C_23  and  C_24 
REMARK    7  A    between atoms: C_24  and  O_26 
ROOT
HETATM    1  C   UNK N   1      41.897  47.450  47.254  0.00  0.00    -0.011 C 
HETATM    2  C   UNK N   1      41.273  46.085  46.727  0.00  0.00     0.026 C 
HETATM    3  C   UNK N   1      40.594  45.376  47.919  0.00  0.00    -0.073 C 
HETATM    4  C   UNK N   1      39.239  45.086  47.963  0.00  0.00    -0.085 C 
HETATM    5  C   UNK N   1      38.283  45.351  46.812  0.00  0.00     0.043 C 
HETATM    6  C   UNK N   1      38.550  44.479  49.174  0.00  0.00     0.043 C 
HETATM    7  C   UNK N   1      41.546  45.067  49.073  0.00  0.00     0.035 C 
HETATM    8  C   UNK N   1      42.166  46.364  49.592  0.00  0.00     0.009 C 
HETATM    9  C   UNK N   1      42.876  47.150  48.466  0.00  0.00    -0.007 C 
HETATM   10  C   UNK N   1      43.570  48.380  49.087  0.00  0.00     0.011 C 
HETATM   11  C   UNK N   1      42.668  48.160  46.110  0.00  0.00     0.018 C 
ENDROOT
BRANCH   1  12
HETATM   12  C   UNK N   1      40.700  48.375  47.652  0.00  0.00     0.185 C 
BRANCH  12  13
HETATM   13  O   UNK N   1      39.609  48.220  46.816  0.00  0.00    -0.350 OA
BRANCH  13  14
HETATM   14  C   UNK N   1      39.459  48.849  45.618  0.00  0.00     0.071 A 
HETATM   15  C   UNK N   1      38.829  48.162  44.569  0.00  0.00     0.038 A 
HETATM   16  C   UNK N   1      38.660  48.770  43.320  0.00  0.00     0.017 A 
HETATM   17  C   UNK N   1      39.119  50.076  43.110  0.00  0.00    -0.002 A 
HETATM   18  C   UNK N   1      39.753  50.777  44.158  0.00  0.00     0.092 A 
HETATM   19  C   UNK N   1      38.967  50.716  41.876  0.00  0.00     0.020 A 
HETATM   20  O   UNK N   1      40.191  52.019  43.967  0.00  0.00    -0.275 OA
HETATM   21  C   UNK N   1      39.921  50.165  45.401  0.00  0.00     0.075 A 
HETATM   22  C   UNK N   1      40.060  52.652  42.804  0.00  0.00     0.288 A 
HETATM   23  O   UNK N   1      40.479  53.788  42.685  0.00  0.00    -0.260 OA
HETATM   24  C   UNK N   1      39.443  52.017  41.719  0.00  0.00     0.083 A 
ENDBRANCH  13  14
ENDBRANCH  12  13
ENDBRANCH   1  12
BRANCH   2  25
HETATM   25  C   UNK N   1      42.291  45.141  46.016  0.00  0.00     0.020 C 
BRANCH  25  26
HETATM   26  C   UNK N   1      41.695  43.830  45.465  0.00  0.00     0.110 C 
BRANCH  26  27
HETATM   27  C   UNK N   1      42.615  42.645  45.568  0.00  0.00     0.139 C 
HETATM   28  O   UNK N   1      42.979  42.060  44.558  0.00  0.00    -0.650 OA
BRANCH  27  29
HETATM   29  O   UNK N   1      43.078  42.260  46.776  0.00  0.00    -0.776 OA
HETATM   30  H   UNK N   1      43.302  42.908  47.459  0.00  0.00     0.167 HD
ENDBRANCH  27  29
ENDBRANCH  26  27
ENDBRANCH  25  26
ENDBRANCH   2  25
TORSDOF 7
ENDMDL
MODEL 4
REMARK VINA RESULT:      -5.7     17.096     20.858
REMARK  7 active torsions:
REMARK  status: ('A' for Active; 'I' for Inactive)
REMARK    1  A    between atoms: C_8  and  O_10 
REMARK    2  A    between atoms: O_10  and  C_11 
REMARK    3  A    between atoms: C_11  and  C_12 
REMARK    4  A    between atoms: C_13  and  C_22 
REMARK    5  A    between atoms: C_22  and  C_23 
REMARK    6  A    between atoms: C_23  and  C_24 
REMARK    7  A    between atoms: C_24  and  O_26 
ROOT
HETATM    1  C   UNK N   1      30.896  42.889  59.317  0.00  0.00    -0.011 C 
HETATM    2  C   UNK N   1      31.303  42.187  60.684  0.00  0.00     0.026 C 
HETATM    3  C   UNK N   1      32.653  42.778  61.144  0.00  0.00    -0.073 C 
HETATM    4  C   UNK N   1      32.818  43.464  62.338  0.00  0.00    -0.085 C 
HETATM    5  C   UNK N   1      31.716  43.637  63.370  0.00  0.00     0.043 C 
HETATM    6  C   UNK N   1      34.119  44.133  62.748  0.00  0.00     0.043 C 
HETATM    7  C   UNK N   1      33.784  42.582  60.137  0.00  0.00     0.035 C 
HETATM    8  C   UNK N   1      33.413  43.243  58.810  0.00  0.00     0.009 C 
HETATM    9  C   UNK N   1      32.069  42.711  58.262  0.00  0.00    -0.007 C 
HETATM   10  C   UNK N   1      31.822  43.337  56.873  0.00  0.00     0.011 C 
HETATM   11  C   UNK N   1      29.586  42.265  58.766  0.00  0.00     0.018 C 
ENDROOT
BRANCH   1  12
HETATM   12  C   UNK N   1      30.595  44.388  59.646  0.00  0.00     0.185 C 
BRANCH  12  13
HETATM   13  O   UNK N   1      29.366  44.801  59.164  0.00  0.00    -0.350 OA
BRANCH  13  14
HETATM   14  C   UNK N   1      29.149  45.968  58.500  0.00  0.00     0.071 A 
HETATM   15  C   UNK N   1      27.829  46.413  58.328  0.00  0.00     0.038 A 
HETATM   16  C   UNK N   1      27.564  47.606  57.647  0.00  0.00     0.017 A 
HETATM   17  C   UNK N   1      28.619  48.369  57.132  0.00  0.00    -0.002 A 
HETATM   18  C   UNK N   1      29.950  47.932  57.300  0.00  0.00     0.092 A 
HETATM   19  C   UNK N   1      28.392  49.565  56.446  0.00  0.00     0.020 A 
HETATM   20  O   UNK N   1      30.960  48.651  56.816  0.00  0.00    -0.275 OA
HETATM   21  C   UNK N   1      30.211  46.740  57.979  0.00  0.00     0.075 A 
HETATM   22  C   UNK N   1      30.773  49.794  56.159  0.00  0.00     0.288 A 
HETATM   23  O   UNK N   1      31.732  50.410  55.737  0.00  0.00    -0.260 OA
HETATM   24  C   UNK N   1      29.478  50.286  55.953  0.00  0.00     0.083 A 
ENDBRANCH  13  14
ENDBRANCH  12  13
ENDBRANCH   1  12
BRANCH   2  25
HETATM   25  C   UNK N   1      31.365  40.629  60.618  0.00  0.00     0.020 C 
BRANCH  25  26
HETATM   26  C   UNK N   1      30.249  39.895  61.389  0.00  0.00     0.110 C 
BRANCH  26  27
HETATM   27  C   UNK N   1      30.418  38.402  61.441  0.00  0.00     0.139 C 
HETATM   28  O   UNK N   1      30.390  37.743  60.412  0.00  0.00    -0.650 OA
BRANCH  27  29
HETATM   29  O   UNK N   1      30.652  37.796  62.625  0.00  0.00    -0.776 OA
HETATM   30  H   UNK N   1      31.233  37.024  62.688  0.00  0.00     0.167 HD
ENDBRANCH  27  29
ENDBRANCH  26  27
ENDBRANCH  25  26
ENDBRANCH   2  25
TORSDOF 7
ENDMDL
MODEL 5
REMARK VINA RESULT:      -5.6     16.654     20.283
REMARK  7 active torsions:
REMARK  status: ('A' for Active; 'I' for Inactive)
REMARK    1  A    between atoms: C_8  and  O_10 
REMARK    2  A    between atoms: O_10  and  C_11 
REMARK    3  A    between atoms: C_11  and  C_12 
REMARK    4  A    between atoms: C_13  and  C_22 
REMARK    5  A    between atoms: C_22  and  C_23 
REMARK    6  A    between atoms: C_23  and  C_24 
REMARK    7  A    between atoms: C_24  and  O_26 
ROOT
HETATM    1  C   UNK N   1      30.038  43.040  60.696  0.00  0.00    -0.011 C 
HETATM    2  C   UNK N   1      31.200  42.531  59.737  0.00  0.00     0.026 C 
HETATM    3  C   UNK N   1      30.557  42.036  58.424  0.00  0.00    -0.073 C 
HETATM    4  C   UNK N   1      30.827  42.596  57.184  0.00  0.00    -0.085 C 
HETATM    5  C   UNK N   1      31.849  43.698  56.962  0.00  0.00     0.043 C 
HETATM    6  C   UNK N   1      30.123  42.178  55.904  0.00  0.00     0.043 C 
HETATM    7  C   UNK N   1      29.553  40.902  58.621  0.00  0.00     0.035 C 
HETATM    8  C   UNK N   1      28.428  41.365  59.547  0.00  0.00     0.009 C 
HETATM    9  C   UNK N   1      28.974  41.880  60.898  0.00  0.00    -0.007 C 
HETATM   10  C   UNK N   1      27.780  42.217  61.815  0.00  0.00     0.011 C 
HETATM   11  C   UNK N   1      30.626  43.468  62.067  0.00  0.00     0.018 C 
ENDROOT
BRANCH   1  12
HETATM   12  C   UNK N   1      29.427  44.318  60.033  0.00  0.00     0.185 C 
BRANCH  12  13
HETATM   13  O   UNK N   1      30.370  45.306  59.816  0.00  0.00    -0.350 OA
BRANCH  13  14
HETATM   14  C   UNK N   1      30.079  46.588  59.466  0.00  0.00     0.071 A 
HETATM   15  C   UNK N   1      29.542  47.448  60.437  0.00  0.00     0.038 A 
HETATM   16  C   UNK N   1      29.223  48.772  60.116  0.00  0.00     0.017 A 
HETATM   17  C   UNK N   1      29.442  49.251  58.819  0.00  0.00    -0.002 A 
HETATM   18  C   UNK N   1      29.983  48.396  57.835  0.00  0.00     0.092 A 
HETATM   19  C   UNK N   1      29.137  50.568  58.462  0.00  0.00     0.020 A 
HETATM   20  O   UNK N   1      30.197  48.843  56.600  0.00  0.00    -0.275 OA
HETATM   21  C   UNK N   1      30.298  47.075  58.159  0.00  0.00     0.075 A 
HETATM   22  C   UNK N   1      29.916  50.091  56.233  0.00  0.00     0.288 A 
HETATM   23  O   UNK N   1      30.130  50.446  55.090  0.00  0.00    -0.260 OA
HETATM   24  C   UNK N   1      29.374  50.994  57.157  0.00  0.00     0.083 A 
ENDBRANCH  13  14
ENDBRANCH  12  13
ENDBRANCH   1  12
BRANCH   2  25
HETATM   25  C   UNK N   1      32.120  41.436  60.361  0.00  0.00     0.020 C 
BRANCH  25  26
HETATM   26  C   UNK N   1      33.577  41.439  59.857  0.00  0.00     0.110 C 
BRANCH  26  27
HETATM   27  C   UNK N   1      34.265  42.771  59.972  0.00  0.00     0.139 C 
HETATM   28  O   UNK N   1      34.339  43.334  61.054  0.00  0.00    -0.650 OA
BRANCH  27  29
HETATM   29  O   UNK N   1      34.847  43.321  58.884  0.00  0.00    -0.776 OA
HETATM   30  H   UNK N   1      35.480  42.823  58.347  0.00  0.00     0.167 HD
ENDBRANCH  27  29
ENDBRANCH  26  27
ENDBRANCH  25  26
ENDBRANCH   2  25
TORSDOF 7
ENDMDL
MODEL 6
REMARK VINA RESULT:      -5.6     10.454     15.636
REMARK  7 active torsions:
REMARK  status: ('A' for Active; 'I' for Inactive)
REMARK    1  A    between atoms: C_8  and  O_10 
REMARK    2  A    between atoms: O_10  and  C_11 
REMARK    3  A    between atoms: C_11  and  C_12 
REMARK    4  A    between atoms: C_13  and  C_22 
REMARK    5  A    between atoms: C_22  and  C_23 
REMARK    6  A    between atoms: C_23  and  C_24 
REMARK    7  A    between atoms: C_24  and  O_26 
ROOT
HETATM    1  C   UNK N   1      41.512  45.901  47.242  0.00  0.00    -0.011 C 
HETATM    2  C   UNK N   1      41.535  44.479  47.952  0.00  0.00     0.026 C 
HETATM    3  C   UNK N   1      41.501  44.703  49.479  0.00  0.00    -0.073 C 
HETATM    4  C   UNK N   1      40.482  44.239  50.296  0.00  0.00    -0.085 C 
HETATM    5  C   UNK N   1      39.329  43.383  49.801  0.00  0.00     0.043 C 
HETATM    6  C   UNK N   1      40.395  44.543  51.782  0.00  0.00     0.043 C 
HETATM    7  C   UNK N   1      42.673  45.531  50.003  0.00  0.00     0.035 C 
HETATM    8  C   UNK N   1      42.678  46.903  49.329  0.00  0.00     0.009 C 
HETATM    9  C   UNK N   1      42.713  46.783  47.788  0.00  0.00    -0.007 C 
HETATM   10  C   UNK N   1      42.832  48.199  47.187  0.00  0.00     0.011 C 
HETATM   11  C   UNK N   1      41.633  45.732  45.704  0.00  0.00     0.018 C 
ENDROOT
BRANCH   1  12
HETATM   12  C   UNK N   1      40.111  46.533  47.532  0.00  0.00     0.185 C 
BRANCH  12  13
HETATM   13  O   UNK N   1      40.071  47.887  47.253  0.00  0.00    -0.350 OA
BRANCH  13  14
HETATM   14  C   UNK N   1      39.706  48.418  46.054  0.00  0.00     0.071 A 
HETATM   15  C   UNK N   1      38.859  47.676  45.217  0.00  0.00     0.038 A 
HETATM   16  C   UNK N   1      38.465  48.184  43.974  0.00  0.00     0.017 A 
HETATM   17  C   UNK N   1      38.912  49.444  43.558  0.00  0.00    -0.002 A 
HETATM   18  C   UNK N   1      39.762  50.200  44.393  0.00  0.00     0.092 A 
HETATM   19  C   UNK N   1      38.538  49.984  42.324  0.00  0.00     0.020 A 
HETATM   20  O   UNK N   1      40.191  51.399  44.007  0.00  0.00    -0.275 OA
HETATM   21  C   UNK N   1      40.155  49.688  45.631  0.00  0.00     0.075 A 
HETATM   22  C   UNK N   1      39.851  51.937  42.838  0.00  0.00     0.288 A 
HETATM   23  O   UNK N   1      40.272  53.037  42.536  0.00  0.00    -0.260 OA
HETATM   24  C   UNK N   1      39.012  51.243  41.958  0.00  0.00     0.083 A 
ENDBRANCH  13  14
ENDBRANCH  12  13
ENDBRANCH   1  12
BRANCH   2  25
HETATM   25  C   UNK N   1      42.735  43.571  47.543  0.00  0.00     0.020 C 
BRANCH  25  26
HETATM   26  C   UNK N   1      42.393  42.435  46.558  0.00  0.00     0.110 C 
BRANCH  26  27
HETATM   27  C   UNK N   1      43.519  42.064  45.633  0.00  0.00     0.139 C 
HETATM   28  O   UNK N   1      44.676  42.112  46.021  0.00  0.00    -0.650 OA
BRANCH  27  29
HETATM   29  O   UNK N   1      43.244  41.626  44.385  0.00  0.00    -0.776 OA
HETATM   30  H   UNK N   1      43.181  40.681  44.185  0.00  0.00     0.167 HD
ENDBRANCH  27  29
ENDBRANCH  26  27
ENDBRANCH  25  26
ENDBRANCH   2  25
TORSDOF 7
ENDMDL
MODEL 7
REMARK VINA RESULT:      -5.5      1.897      2.505
REMARK  7 active torsions:
REMARK  status: ('A' for Active; 'I' for Inactive)
REMARK    1  A    between atoms: C_8  and  O_10 
REMARK    2  A    between atoms: O_10  and  C_11 
REMARK    3  A    between atoms: C_11  and  C_12 
REMARK    4  A    between atoms: C_13  and  C_22 
REMARK    5  A    between atoms: C_22  and  C_23 
REMARK    6  A    between atoms: C_23  and  C_24 
REMARK    7  A    between atoms: C_24  and  O_26 
ROOT
HETATM    1  C   UNK N   1      27.475  55.790  41.005  0.00  0.00    -0.011 C 
HETATM    2  C   UNK N   1      27.243  54.603  39.973  0.00  0.00     0.026 C 
HETATM    3  C   UNK N   1      27.518  55.141  38.552  0.00  0.00    -0.073 C 
HETATM    4  C   UNK N   1      28.513  54.640  37.726  0.00  0.00    -0.085 C 
HETATM    5  C   UNK N   1      29.386  53.450  38.084  0.00  0.00     0.043 C 
HETATM    6  C   UNK N   1      28.851  55.231  36.368  0.00  0.00     0.043 C 
HETATM    7  C   UNK N   1      26.624  56.314  38.157  0.00  0.00     0.035 C 
HETATM    8  C   UNK N   1      26.823  57.468  39.140  0.00  0.00     0.009 C 
HETATM    9  C   UNK N   1      26.566  57.027  40.599  0.00  0.00    -0.007 C 
HETATM   10  C   UNK N   1      26.673  58.265  41.513  0.00  0.00     0.011 C 
HETATM   11  C   UNK N   1      27.126  55.323  42.443  0.00  0.00     0.018 C 
ENDROOT
BRANCH   1  12
HETATM   12  C   UNK N   1      29.003  56.122  40.982  0.00  0.00     0.185 C 
BRANCH  12  13
HETATM   13  O   UNK N   1      29.790  54.992  40.860  0.00  0.00    -0.350 OA
BRANCH  13  14
HETATM   14  C   UNK N   1      30.626  54.525  41.827  0.00  0.00     0.071 A 
HETATM   15  C   UNK N   1      30.746  53.138  42.002  0.00  0.00     0.038 A 
HETATM   16  C   UNK N   1      31.590  52.616  42.990  0.00  0.00     0.017 A 
HETATM   17  C   UNK N   1      32.326  53.481  43.810  0.00  0.00    -0.002 A 
HETATM   18  C   UNK N   1      32.213  54.877  43.642  0.00  0.00     0.092 A 
HETATM   19  C   UNK N   1      33.179  52.996  44.806  0.00  0.00     0.020 A 
HETATM   20  O   UNK N   1      32.909  55.706  44.416  0.00  0.00    -0.275 OA
HETATM   21  C   UNK N   1      31.369  55.392  42.657  0.00  0.00     0.075 A 
HETATM   22  C   UNK N   1      33.729  55.273  45.371  0.00  0.00     0.288 A 
HETATM   23  O   UNK N   1      34.341  56.075  46.050  0.00  0.00    -0.260 OA
HETATM   24  C   UNK N   1      33.888  53.900  45.596  0.00  0.00     0.083 A 
ENDBRANCH  13  14
ENDBRANCH  12  13
ENDBRANCH   1  12
BRANCH   2  25
HETATM   25  C   UNK N   1      25.836  53.935  40.059  0.00  0.00     0.020 C 
BRANCH  25  26
HETATM   26  C   UNK N   1      25.750  52.507  39.485  0.00  0.00     0.110 C 
BRANCH  26  27
HETATM   27  C   UNK N   1      26.358  51.453  40.368  0.00  0.00     0.139 C 
HETATM   28  O   UNK N   1      27.340  50.828  39.995  0.00  0.00    -0.650 OA
BRANCH  27  29
HETATM   29  O   UNK N   1      25.846  51.233  41.599  0.00  0.00    -0.776 OA
HETATM   30  H   UNK N   1      25.115  51.766  41.942  0.00  0.00     0.167 HD
ENDBRANCH  27  29
ENDBRANCH  26  27
ENDBRANCH  25  26
ENDBRANCH   2  25
TORSDOF 7
ENDMDL
MODEL 8
REMARK VINA RESULT:      -5.5     18.372     21.974
REMARK  7 active torsions:
REMARK  status: ('A' for Active; 'I' for Inactive)
REMARK    1  A    between atoms: C_8  and  O_10 
REMARK    2  A    between atoms: O_10  and  C_11 
REMARK    3  A    between atoms: C_11  and  C_12 
REMARK    4  A    between atoms: C_13  and  C_22 
REMARK    5  A    between atoms: C_22  and  C_23 
REMARK    6  A    between atoms: C_23  and  C_24 
REMARK    7  A    between atoms: C_24  and  O_26 
ROOT
HETATM    1  C   UNK N   1      32.431  42.675  60.075  0.00  0.00    -0.011 C 
HETATM    2  C   UNK N   1      31.585  43.942  59.620  0.00  0.00     0.026 C 
HETATM    3  C   UNK N   1      30.247  43.927  60.390  0.00  0.00    -0.073 C 
HETATM    4  C   UNK N   1      29.854  44.937  61.256  0.00  0.00    -0.085 C 
HETATM    5  C   UNK N   1      30.649  46.212  61.480  0.00  0.00     0.043 C 
HETATM    6  C   UNK N   1      28.585  44.878  62.090  0.00  0.00     0.043 C 
HETATM    7  C   UNK N   1      29.414  42.670  60.149  0.00  0.00     0.035 C 
HETATM    8  C   UNK N   1      30.210  41.436  60.571  0.00  0.00     0.009 C 
HETATM    9  C   UNK N   1      31.574  41.359  59.848  0.00  0.00    -0.007 C 
HETATM   10  C   UNK N   1      32.264  40.035  60.238  0.00  0.00     0.011 C 
HETATM   11  C   UNK N   1      33.752  42.596  59.263  0.00  0.00     0.018 C 
ENDROOT
BRANCH   1  12
HETATM   12  C   UNK N   1      32.819  42.900  61.573  0.00  0.00     0.185 C 
BRANCH  12  13
HETATM   13  O   UNK N   1      34.141  43.277  61.729  0.00  0.00    -0.350 OA
BRANCH  13  14
HETATM   14  C   UNK N   1      34.550  44.426  62.331  0.00  0.00     0.071 A 
HETATM   15  C   UNK N   1      33.644  45.123  63.144  0.00  0.00     0.038 A 
HETATM   16  C   UNK N   1      34.024  46.312  63.777  0.00  0.00     0.017 A 
HETATM   17  C   UNK N   1      35.319  46.815  63.603  0.00  0.00    -0.002 A 
HETATM   18  C   UNK N   1      36.239  46.122  62.788  0.00  0.00     0.092 A 
HETATM   19  C   UNK N   1      35.734  47.999  64.219  0.00  0.00     0.020 A 
HETATM   20  O   UNK N   1      37.473  46.591  62.618  0.00  0.00    -0.275 OA
HETATM   21  C   UNK N   1      35.855  44.937  62.158  0.00  0.00     0.075 A 
HETATM   22  C   UNK N   1      37.895  47.715  63.193  0.00  0.00     0.288 A 
HETATM   23  O   UNK N   1      39.033  48.099  63.003  0.00  0.00    -0.260 OA
HETATM   24  C   UNK N   1      37.034  48.456  64.013  0.00  0.00     0.083 A 
ENDBRANCH  13  14
ENDBRANCH  12  13
ENDBRANCH   1  12
BRANCH   2  25
HETATM   25  C   UNK N   1      31.348  44.044  58.081  0.00  0.00     0.020 C 
BRANCH  25  26
HETATM   26  C   UNK N   1      31.471  45.462  57.491  0.00  0.00     0.110 C 
BRANCH  26  27
HETATM   27  C   UNK N   1      30.277  46.340  57.747  0.00  0.00     0.139 C 
HETATM   28  O   UNK N   1      30.427  47.530  57.980  0.00  0.00    -0.650 OA
BRANCH  27  29
HETATM   29  O   UNK N   1      29.033  45.819  57.668  0.00  0.00    -0.776 OA
HETATM   30  H   UNK N   1      28.438  45.821  58.432  0.00  0.00     0.167 HD
ENDBRANCH  27  29
ENDBRANCH  26  27
ENDBRANCH  25  26
ENDBRANCH   2  25
TORSDOF 7
ENDMDL
MODEL 9
REMARK VINA RESULT:      -5.5      9.255     14.477
REMARK  7 active torsions:
REMARK  status: ('A' for Active; 'I' for Inactive)
REMARK    1  A    between atoms: C_8  and  O_10 
REMARK    2  A    between atoms: O_10  and  C_11 
REMARK    3  A    between atoms: C_11  and  C_12 
REMARK    4  A    between atoms: C_13  and  C_22 
REMARK    5  A    between atoms: C_22  and  C_23 
REMARK    6  A    between atoms: C_23  and  C_24 
REMARK    7  A    between atoms: C_24  and  O_26 
ROOT
HETATM    1  C   UNK N   1      42.185  47.032  47.556  0.00  0.00    -0.011 C 
HETATM    2  C   UNK N   1      41.426  45.723  47.069  0.00  0.00     0.026 C 
HETATM    3  C   UNK N   1      40.368  45.358  48.131  0.00  0.00    -0.073 C 
HETATM    4  C   UNK N   1      39.007  45.314  47.869  0.00  0.00    -0.085 C 
HETATM    5  C   UNK N   1      38.407  45.534  46.490  0.00  0.00     0.043 C 
HETATM    6  C   UNK N   1      37.955  45.053  48.934  0.00  0.00     0.043 C 
HETATM    7  C   UNK N   1      40.954  45.096  49.517  0.00  0.00     0.035 C 
HETATM    8  C   UNK N   1      41.696  46.340  50.006  0.00  0.00     0.009 C 
HETATM    9  C   UNK N   1      42.787  46.786  49.004  0.00  0.00    -0.007 C 
HETATM   10  C   UNK N   1      43.564  47.969  49.618  0.00  0.00     0.011 C 
HETATM   11  C   UNK N   1      43.322  47.392  46.563  0.00  0.00     0.018 C 
ENDROOT
BRANCH   1  12
HETATM   12  C   UNK N   1      41.147  48.202  47.518  0.00  0.00     0.185 C 
BRANCH  12  13
HETATM   13  O   UNK N   1      41.417  49.118  46.518  0.00  0.00    -0.350 OA
BRANCH  13  14
HETATM   14  C   UNK N   1      40.601  49.364  45.456  0.00  0.00     0.071 A 
HETATM   15  C   UNK N   1      40.873  50.472  44.639  0.00  0.00     0.038 A 
HETATM   16  C   UNK N   1      40.056  50.763  43.541  0.00  0.00     0.017 A 
HETATM   17  C   UNK N   1      38.957  49.944  43.248  0.00  0.00    -0.002 A 
HETATM   18  C   UNK N   1      38.676  48.827  44.063  0.00  0.00     0.092 A 
HETATM   19  C   UNK N   1      38.120  50.204  42.160  0.00  0.00     0.020 A 
HETATM   20  O   UNK N   1      37.636  48.043  43.792  0.00  0.00    -0.275 OA
HETATM   21  C   UNK N   1      39.493  48.542  45.158  0.00  0.00     0.075 A 
HETATM   22  C   UNK N   1      36.822  48.266  42.762  0.00  0.00     0.288 A 
HETATM   23  O   UNK N   1      35.885  47.516  42.561  0.00  0.00    -0.260 OA
HETATM   24  C   UNK N   1      37.040  49.358  41.913  0.00  0.00     0.083 A 
ENDBRANCH  13  14
ENDBRANCH  12  13
ENDBRANCH   1  12
BRANCH   2  25
HETATM   25  C   UNK N   1      42.359  44.510  46.764  0.00  0.00     0.020 C 
BRANCH  25  26
HETATM   26  C   UNK N   1      41.687  43.334  46.029  0.00  0.00     0.110 C 
BRANCH  26  27
HETATM   27  C   UNK N   1      41.074  43.705  44.706  0.00  0.00     0.139 C 
HETATM   28  O   UNK N   1      41.750  44.253  43.848  0.00  0.00    -0.650 OA
BRANCH  27  29
HETATM   29  O   UNK N   1      39.788  43.384  44.450  0.00  0.00    -0.776 OA
HETATM   30  H   UNK N   1      39.559  42.681  43.825  0.00  0.00     0.167 HD
ENDBRANCH  27  29
ENDBRANCH  26  27
ENDBRANCH  25  26
ENDBRANCH   2  25
TORSDOF 7
ENDMDL
