MODEL 1
REMARK VINA RESULT:      -7.0      0.000      0.000
REMARK  10 active torsions:
REMARK  status: ('A' for Active; 'I' for Inactive)
REMARK    1  A    between atoms: C_2  and  O_3 
REMARK    2  A    between atoms: C_2  and  C_5 
REMARK    3  A    between atoms: C_6  and  O_7 
REMARK    4  A    between atoms: C_11  and  O_13 
REMARK    5  A    between atoms: O_13  and  C_14 
REMARK    6  A    between atoms: C_16  and  C_26 
REMARK    7  A    between atoms: C_17  and  O_18 
REMARK    8  A    between atoms: C_20  and  O_21 
REMARK    9  A    between atoms: C_23  and  O_24 
REMARK   10  A    between atoms: C_26  and  O_27 
ROOT
HETATM    1  C   UNK N   1      41.641  45.252  47.699  0.00  0.00     0.298 C 
HETATM    2  O   UNK N   1      42.381  44.592  46.682  0.00  0.00    -0.348 OA
HETATM    3  C   UNK N   1      41.596  43.665  45.942  0.00  0.00     0.179 C 
HETATM    4  C   UNK N   1      40.393  44.355  45.247  0.00  0.00     0.180 C 
HETATM    5  C   UNK N   1      39.539  45.068  46.309  0.00  0.00     0.183 C 
HETATM    6  C   UNK N   1      40.439  46.018  47.113  0.00  0.00     0.205 C 
ENDROOT
BRANCH   1   7
HETATM    7  O   UNK N   1      41.221  44.362  48.683  0.00  0.00    -0.318 OA
BRANCH   7   8
HETATM    8  C   UNK N   1      41.387  44.544  50.022  0.00  0.00     0.073 A 
HETATM    9  C   UNK N   1      42.283  45.498  50.542  0.00  0.00     0.039 A 
HETATM   10  C   UNK N   1      42.399  45.676  51.918  0.00  0.00     0.040 A 
HETATM   11  C   UNK N   1      41.628  44.913  52.806  0.00  0.00     0.082 A 
HETATM   12  C   UNK N   1      40.728  43.945  52.300  0.00  0.00     0.073 A 
HETATM   13  C   UNK N   1      40.628  43.767  50.906  0.00  0.00     0.058 A 
BRANCH  11  14
HETATM   14  O   UNK N   1      41.739  45.120  54.135  0.00  0.00    -0.360 OA
HETATM   15  H   UNK N   1      41.194  45.773  54.599  0.00  0.00     0.217 HD
ENDBRANCH  11  14
BRANCH  12  16
HETATM   16  C   UNK N   1      39.868  43.131  53.207  0.00  0.00     0.179 C 
HETATM   17  O   UNK N   1      40.197  42.931  54.366  0.00  0.00    -0.646 OA
BRANCH  16  18
HETATM   18  O   UNK N   1      38.694  42.634  52.757  0.00  0.00    -0.773 OA
HETATM   19  H   UNK N   1      38.357  41.785  53.077  0.00  0.00     0.167 HD
ENDBRANCH  16  18
ENDBRANCH  12  16
ENDBRANCH   7   8
ENDBRANCH   1   7
BRANCH   6  20
HETATM   20  O   UNK N   1      39.718  46.684  48.121  0.00  0.00    -0.388 OA
HETATM   21  H   UNK N   1      40.014  47.632  48.134  0.00  0.00     0.210 HD
ENDBRANCH   6  20
BRANCH   3  22
HETATM   22  C   UNK N   1      42.513  42.998  44.899  0.00  0.00     0.198 C 
BRANCH  22  23
HETATM   23  O   UNK N   1      42.577  43.753  43.717  0.00  0.00    -0.398 OA
HETATM   24  H   UNK N   1      43.430  43.517  43.268  0.00  0.00     0.209 HD
ENDBRANCH  22  23
ENDBRANCH   3  22
BRANCH   5  25
HETATM   25  O   UNK N   1      38.470  45.768  45.720  0.00  0.00    -0.390 OA
HETATM   26  H   UNK N   1      38.482  45.574  44.745  0.00  0.00     0.210 HD
ENDBRANCH   5  25
BRANCH   4  27
HETATM   27  O   UNK N   1      39.622  43.396  44.568  0.00  0.00    -0.390 OA
HETATM   28  H   UNK N   1      40.248  42.863  44.012  0.00  0.00     0.210 HD
ENDBRANCH   4  27
TORSDOF 10
ENDMDL
MODEL 2
REMARK VINA RESULT:      -7.0      1.195      2.684
REMARK  10 active torsions:
REMARK  status: ('A' for Active; 'I' for Inactive)
REMARK    1  A    between atoms: C_2  and  O_3 
REMARK    2  A    between atoms: C_2  and  C_5 
REMARK    3  A    between atoms: C_6  and  O_7 
REMARK    4  A    between atoms: C_11  and  O_13 
REMARK    5  A    between atoms: O_13  and  C_14 
REMARK    6  A    between atoms: C_16  and  C_26 
REMARK    7  A    between atoms: C_17  and  O_18 
REMARK    8  A    between atoms: C_20  and  O_21 
REMARK    9  A    between atoms: C_23  and  O_24 
REMARK   10  A    between atoms: C_26  and  O_27 
ROOT
HETATM    1  C   UNK N   1      41.225  43.463  48.000  0.00  0.00     0.298 C 
HETATM    2  O   UNK N   1      40.096  44.305  47.811  0.00  0.00    -0.348 OA
HETATM    3  C   UNK N   1      40.392  45.454  47.027  0.00  0.00     0.179 C 
HETATM    4  C   UNK N   1      40.909  45.070  45.615  0.00  0.00     0.180 C 
HETATM    5  C   UNK N   1      42.150  44.175  45.760  0.00  0.00     0.183 C 
HETATM    6  C   UNK N   1      41.796  42.977  46.655  0.00  0.00     0.205 C 
ENDROOT
BRANCH   1   7
HETATM    7  O   UNK N   1      42.211  44.094  48.752  0.00  0.00    -0.318 OA
BRANCH   7   8
HETATM    8  C   UNK N   1      42.074  44.485  50.049  0.00  0.00     0.073 A 
HETATM    9  C   UNK N   1      42.651  45.673  50.537  0.00  0.00     0.039 A 
HETATM   10  C   UNK N   1      42.460  46.054  51.863  0.00  0.00     0.040 A 
HETATM   11  C   UNK N   1      41.690  45.265  52.730  0.00  0.00     0.082 A 
HETATM   12  C   UNK N   1      41.110  44.064  52.257  0.00  0.00     0.073 A 
HETATM   13  C   UNK N   1      41.320  43.685  50.917  0.00  0.00     0.058 A 
BRANCH  11  14
HETATM   14  O   UNK N   1      41.498  45.667  54.004  0.00  0.00    -0.360 OA
HETATM   15  H   UNK N   1      41.736  45.108  54.758  0.00  0.00     0.217 HD
ENDBRANCH  11  14
BRANCH  12  16
HETATM   16  C   UNK N   1      40.261  43.210  53.137  0.00  0.00     0.179 C 
HETATM   17  O   UNK N   1      40.676  42.821  54.218  0.00  0.00    -0.646 OA
BRANCH  16  18
HETATM   18  O   UNK N   1      39.006  42.886  52.754  0.00  0.00    -0.773 OA
HETATM   19  H   UNK N   1      38.249  43.432  53.010  0.00  0.00     0.167 HD
ENDBRANCH  16  18
ENDBRANCH  12  16
ENDBRANCH   7   8
ENDBRANCH   1   7
BRANCH   6  20
HETATM   20  O   UNK N   1      42.903  42.130  46.847  0.00  0.00    -0.388 OA
HETATM   21  H   UNK N   1      42.566  41.257  47.179  0.00  0.00     0.210 HD
ENDBRANCH   6  20
BRANCH   3  22
HETATM   22  C   UNK N   1      39.106  46.296  46.921  0.00  0.00     0.198 C 
BRANCH  22  23
HETATM   23  O   UNK N   1      38.476  46.114  45.679  0.00  0.00    -0.398 OA
HETATM   24  H   UNK N   1      37.557  45.788  45.865  0.00  0.00     0.209 HD
ENDBRANCH  22  23
ENDBRANCH   3  22
BRANCH   5  25
HETATM   25  O   UNK N   1      42.618  43.742  44.505  0.00  0.00    -0.390 OA
HETATM   26  H   UNK N   1      42.718  44.545  43.928  0.00  0.00     0.210 HD
ENDBRANCH   5  25
BRANCH   4  27
HETATM   27  O   UNK N   1      41.230  46.233  44.894  0.00  0.00    -0.390 OA
HETATM   28  H   UNK N   1      41.279  46.977  45.549  0.00  0.00     0.210 HD
ENDBRANCH   4  27
TORSDOF 10
ENDMDL
MODEL 3
REMARK VINA RESULT:      -6.5      1.420      2.113
REMARK  10 active torsions:
REMARK  status: ('A' for Active; 'I' for Inactive)
REMARK    1  A    between atoms: C_2  and  O_3 
REMARK    2  A    between atoms: C_2  and  C_5 
REMARK    3  A    between atoms: C_6  and  O_7 
REMARK    4  A    between atoms: C_11  and  O_13 
REMARK    5  A    between atoms: O_13  and  C_14 
REMARK    6  A    between atoms: C_16  and  C_26 
REMARK    7  A    between atoms: C_17  and  O_18 
REMARK    8  A    between atoms: C_20  and  O_21 
REMARK    9  A    between atoms: C_23  and  O_24 
REMARK   10  A    between atoms: C_26  and  O_27 
ROOT
HETATM    1  C   UNK N   1      40.058  45.747  48.343  0.00  0.00     0.298 C 
HETATM    2  O   UNK N   1      40.813  46.822  47.804  0.00  0.00    -0.348 OA
HETATM    3  C   UNK N   1      41.681  46.413  46.754  0.00  0.00     0.179 C 
HETATM    4  C   UNK N   1      40.899  45.775  45.575  0.00  0.00     0.180 C 
HETATM    5  C   UNK N   1      40.079  44.585  46.100  0.00  0.00     0.183 C 
HETATM    6  C   UNK N   1      39.197  45.066  47.263  0.00  0.00     0.205 C 
ENDROOT
BRANCH   1   7
HETATM    7  O   UNK N   1      40.876  44.816  48.977  0.00  0.00    -0.318 OA
BRANCH   7   8
HETATM    8  C   UNK N   1      41.134  44.786  50.313  0.00  0.00     0.073 A 
HETATM    9  C   UNK N   1      42.126  45.593  50.902  0.00  0.00     0.039 A 
HETATM   10  C   UNK N   1      42.338  45.556  52.278  0.00  0.00     0.040 A 
HETATM   11  C   UNK N   1      41.567  44.719  53.097  0.00  0.00     0.082 A 
HETATM   12  C   UNK N   1      40.570  43.896  52.520  0.00  0.00     0.073 A 
HETATM   13  C   UNK N   1      40.375  43.935  51.126  0.00  0.00     0.058 A 
BRANCH  11  14
HETATM   14  O   UNK N   1      41.772  44.718  54.431  0.00  0.00    -0.360 OA
HETATM   15  H   UNK N   1      42.347  45.368  54.861  0.00  0.00     0.217 HD
ENDBRANCH  11  14
BRANCH  12  16
HETATM   16  C   UNK N   1      39.709  43.013  53.358  0.00  0.00     0.179 C 
HETATM   17  O   UNK N   1      40.001  42.776  54.520  0.00  0.00    -0.646 OA
BRANCH  16  18
HETATM   18  O   UNK N   1      38.574  42.490  52.841  0.00  0.00    -0.773 OA
HETATM   19  H   UNK N   1      38.316  41.576  53.027  0.00  0.00     0.167 HD
ENDBRANCH  16  18
ENDBRANCH  12  16
ENDBRANCH   7   8
ENDBRANCH   1   7
BRANCH   6  20
HETATM   20  O   UNK N   1      38.437  44.012  47.805  0.00  0.00    -0.388 OA
HETATM   21  H   UNK N   1      37.813  44.398  48.474  0.00  0.00     0.210 HD
ENDBRANCH   6  20
BRANCH   3  22
HETATM   22  C   UNK N   1      42.462  47.652  46.277  0.00  0.00     0.198 C 
BRANCH  22  23
HETATM   23  O   UNK N   1      41.680  48.453  45.429  0.00  0.00    -0.398 OA
HETATM   24  H   UNK N   1      41.072  47.844  44.935  0.00  0.00     0.209 HD
ENDBRANCH  22  23
ENDBRANCH   3  22
BRANCH   5  25
HETATM   25  O   UNK N   1      39.296  44.014  45.080  0.00  0.00    -0.390 OA
HETATM   26  H   UNK N   1      38.754  43.287  45.487  0.00  0.00     0.210 HD
ENDBRANCH   5  25
BRANCH   4  27
HETATM   27  O   UNK N   1      41.798  45.345  44.585  0.00  0.00    -0.390 OA
HETATM   28  H   UNK N   1      41.323  44.669  44.035  0.00  0.00     0.210 HD
ENDBRANCH   4  27
TORSDOF 10
ENDMDL
MODEL 4
REMARK VINA RESULT:      -6.4      3.756      7.928
REMARK  10 active torsions:
REMARK  status: ('A' for Active; 'I' for Inactive)
REMARK    1  A    between atoms: C_2  and  O_3 
REMARK    2  A    between atoms: C_2  and  C_5 
REMARK    3  A    between atoms: C_6  and  O_7 
REMARK    4  A    between atoms: C_11  and  O_13 
REMARK    5  A    between atoms: O_13  and  C_14 
REMARK    6  A    between atoms: C_16  and  C_26 
REMARK    7  A    between atoms: C_17  and  O_18 
REMARK    8  A    between atoms: C_20  and  O_21 
REMARK    9  A    between atoms: C_23  and  O_24 
REMARK   10  A    between atoms: C_26  and  O_27 
ROOT
HETATM    1  C   UNK N   1      40.625  46.513  46.341  0.00  0.00     0.298 C 
HETATM    2  O   UNK N   1      41.746  46.538  47.212  0.00  0.00    -0.348 OA
HETATM    3  C   UNK N   1      41.377  46.571  48.585  0.00  0.00     0.179 C 
HETATM    4  C   UNK N   1      40.526  45.336  48.982  0.00  0.00     0.180 C 
HETATM    5  C   UNK N   1      39.281  45.272  48.083  0.00  0.00     0.183 C 
HETATM    6  C   UNK N   1      39.728  45.290  46.614  0.00  0.00     0.205 C 
ENDROOT
BRANCH   1   7
HETATM    7  O   UNK N   1      39.887  47.690  46.424  0.00  0.00    -0.318 OA
BRANCH   7   8
HETATM    8  C   UNK N   1      39.781  48.617  45.433  0.00  0.00     0.073 A 
HETATM    9  C   UNK N   1      40.681  49.694  45.317  0.00  0.00     0.039 A 
HETATM   10  C   UNK N   1      40.557  50.603  44.269  0.00  0.00     0.040 A 
HETATM   11  C   UNK N   1      39.541  50.459  43.314  0.00  0.00     0.082 A 
HETATM   12  C   UNK N   1      38.624  49.387  43.420  0.00  0.00     0.073 A 
HETATM   13  C   UNK N   1      38.753  48.481  44.491  0.00  0.00     0.058 A 
BRANCH  11  14
HETATM   14  O   UNK N   1      39.456  51.338  42.293  0.00  0.00    -0.360 OA
HETATM   15  H   UNK N   1      38.990  51.125  41.471  0.00  0.00     0.217 HD
ENDBRANCH  11  14
BRANCH  12  16
HETATM   16  C   UNK N   1      37.547  49.180  42.411  0.00  0.00     0.179 C 
HETATM   17  O   UNK N   1      36.522  48.584  42.704  0.00  0.00    -0.646 OA
BRANCH  16  18
HETATM   18  O   UNK N   1      37.685  49.685  41.164  0.00  0.00    -0.773 OA
HETATM   19  H   UNK N   1      37.667  49.108  40.387  0.00  0.00     0.167 HD
ENDBRANCH  16  18
ENDBRANCH  12  16
ENDBRANCH   7   8
ENDBRANCH   1   7
BRANCH   6  20
HETATM   20  O   UNK N   1      38.627  45.259  45.737  0.00  0.00    -0.388 OA
HETATM   21  H   UNK N   1      38.698  46.041  45.129  0.00  0.00     0.210 HD
ENDBRANCH   6  20
BRANCH   3  22
HETATM   22  C   UNK N   1      42.671  46.628  49.420  0.00  0.00     0.198 C 
BRANCH  22  23
HETATM   23  O   UNK N   1      42.919  45.404  50.061  0.00  0.00    -0.398 OA
HETATM   24  H   UNK N   1      43.248  45.616  50.974  0.00  0.00     0.209 HD
ENDBRANCH  22  23
ENDBRANCH   3  22
BRANCH   5  25
HETATM   25  O   UNK N   1      38.509  44.128  48.358  0.00  0.00    -0.390 OA
HETATM   26  H   UNK N   1      37.977  44.313  49.177  0.00  0.00     0.210 HD
ENDBRANCH   5  25
BRANCH   4  27
HETATM   27  O   UNK N   1      40.147  45.434  50.332  0.00  0.00    -0.390 OA
HETATM   28  H   UNK N   1      39.472  44.725  50.495  0.00  0.00     0.210 HD
ENDBRANCH   4  27
TORSDOF 10
ENDMDL
MODEL 5
REMARK VINA RESULT:      -6.3      2.410      6.844
REMARK  10 active torsions:
REMARK  status: ('A' for Active; 'I' for Inactive)
REMARK    1  A    between atoms: C_2  and  O_3 
REMARK    2  A    between atoms: C_2  and  C_5 
REMARK    3  A    between atoms: C_6  and  O_7 
REMARK    4  A    between atoms: C_11  and  O_13 
REMARK    5  A    between atoms: O_13  and  C_14 
REMARK    6  A    between atoms: C_16  and  C_26 
REMARK    7  A    between atoms: C_17  and  O_18 
REMARK    8  A    between atoms: C_20  and  O_21 
REMARK    9  A    between atoms: C_23  and  O_24 
REMARK   10  A    between atoms: C_26  and  O_27 
ROOT
HETATM    1  C   UNK N   1      42.498  45.372  50.042  0.00  0.00     0.298 C 
HETATM    2  O   UNK N   1      42.557  45.362  51.461  0.00  0.00    -0.348 OA
HETATM    3  C   UNK N   1      41.305  45.056  52.063  0.00  0.00     0.179 C 
HETATM    4  C   UNK N   1      40.781  43.663  51.624  0.00  0.00     0.180 C 
HETATM    5  C   UNK N   1      40.674  43.625  50.091  0.00  0.00     0.183 C 
HETATM    6  C   UNK N   1      42.034  44.011  49.489  0.00  0.00     0.205 C 
ENDROOT
BRANCH   1   7
HETATM    7  O   UNK N   1      41.681  46.396  49.572  0.00  0.00    -0.318 OA
BRANCH   7   8
HETATM    8  C   UNK N   1      41.927  47.143  48.461  0.00  0.00     0.073 A 
HETATM    9  C   UNK N   1      43.186  47.725  48.214  0.00  0.00     0.039 A 
HETATM   10  C   UNK N   1      43.406  48.455  47.049  0.00  0.00     0.040 A 
HETATM   11  C   UNK N   1      42.383  48.620  46.104  0.00  0.00     0.082 A 
HETATM   12  C   UNK N   1      41.110  48.049  46.341  0.00  0.00     0.073 A 
HETATM   13  C   UNK N   1      40.897  47.322  47.529  0.00  0.00     0.058 A 
BRANCH  11  14
HETATM   14  O   UNK N   1      42.626  49.311  44.971  0.00  0.00    -0.360 OA
HETATM   15  H   UNK N   1      42.413  50.252  44.888  0.00  0.00     0.217 HD
ENDBRANCH  11  14
BRANCH  12  16
HETATM   16  C   UNK N   1      40.002  48.176  45.351  0.00  0.00     0.179 C 
HETATM   17  O   UNK N   1      39.107  47.347  45.305  0.00  0.00    -0.646 OA
BRANCH  16  18
HETATM   18  O   UNK N   1      39.965  49.237  44.513  0.00  0.00    -0.773 OA
HETATM   19  H   UNK N   1      39.397  49.235  43.730  0.00  0.00     0.167 HD
ENDBRANCH  16  18
ENDBRANCH  12  16
ENDBRANCH   7   8
ENDBRANCH   1   7
BRANCH   6  20
HETATM   20  O   UNK N   1      41.993  44.019  48.082  0.00  0.00    -0.388 OA
HETATM   21  H   UNK N   1      42.386  43.166  47.760  0.00  0.00     0.210 HD
ENDBRANCH   6  20
BRANCH   3  22
HETATM   22  C   UNK N   1      41.491  45.107  53.591  0.00  0.00     0.198 C 
BRANCH  22  23
HETATM   23  O   UNK N   1      41.820  43.844  54.108  0.00  0.00    -0.398 OA
HETATM   24  H   UNK N   1      42.447  43.422  53.465  0.00  0.00     0.209 HD
ENDBRANCH  22  23
ENDBRANCH   3  22
BRANCH   5  25
HETATM   25  O   UNK N   1      40.267  42.356  49.638  0.00  0.00    -0.390 OA
HETATM   26  H   UNK N   1      40.920  42.058  48.950  0.00  0.00     0.210 HD
ENDBRANCH   5  25
BRANCH   4  27
HETATM   27  O   UNK N   1      39.524  43.423  52.205  0.00  0.00    -0.390 OA
HETATM   28  H   UNK N   1      39.422  44.069  52.952  0.00  0.00     0.210 HD
ENDBRANCH   4  27
TORSDOF 10
ENDMDL
MODEL 6
REMARK VINA RESULT:      -6.3      3.515      7.501
REMARK  10 active torsions:
REMARK  status: ('A' for Active; 'I' for Inactive)
REMARK    1  A    between atoms: C_2  and  O_3 
REMARK    2  A    between atoms: C_2  and  C_5 
REMARK    3  A    between atoms: C_6  and  O_7 
REMARK    4  A    between atoms: C_11  and  O_13 
REMARK    5  A    between atoms: O_13  and  C_14 
REMARK    6  A    between atoms: C_16  and  C_26 
REMARK    7  A    between atoms: C_17  and  O_18 
REMARK    8  A    between atoms: C_20  and  O_21 
REMARK    9  A    between atoms: C_23  and  O_24 
REMARK   10  A    between atoms: C_26  and  O_27 
ROOT
HETATM    1  C   UNK N   1      39.042  46.027  46.392  0.00  0.00     0.298 C 
HETATM    2  O   UNK N   1      39.806  45.119  45.611  0.00  0.00    -0.348 OA
HETATM    3  C   UNK N   1      41.051  44.787  46.213  0.00  0.00     0.179 C 
HETATM    4  C   UNK N   1      40.859  44.132  47.606  0.00  0.00     0.180 C 
HETATM    5  C   UNK N   1      40.056  45.085  48.505  0.00  0.00     0.183 C 
HETATM    6  C   UNK N   1      38.747  45.455  47.791  0.00  0.00     0.205 C 
ENDROOT
BRANCH   1   7
HETATM    7  O   UNK N   1      39.667  47.266  46.491  0.00  0.00    -0.318 OA
BRANCH   7   8
HETATM    8  C   UNK N   1      39.625  48.240  45.541  0.00  0.00     0.073 A 
HETATM    9  C   UNK N   1      40.562  49.291  45.504  0.00  0.00     0.039 A 
HETATM   10  C   UNK N   1      40.503  50.250  44.496  0.00  0.00     0.040 A 
HETATM   11  C   UNK N   1      39.515  50.184  43.503  0.00  0.00     0.082 A 
HETATM   12  C   UNK N   1      38.562  49.139  43.530  0.00  0.00     0.073 A 
HETATM   13  C   UNK N   1      38.626  48.182  44.561  0.00  0.00     0.058 A 
BRANCH  11  14
HETATM   14  O   UNK N   1      39.493  51.110  42.521  0.00  0.00    -0.360 OA
HETATM   15  H   UNK N   1      39.366  52.052  42.708  0.00  0.00     0.217 HD
ENDBRANCH  11  14
BRANCH  12  16
HETATM   16  C   UNK N   1      37.513  49.015  42.478  0.00  0.00     0.179 C 
HETATM   17  O   UNK N   1      36.474  48.413  42.699  0.00  0.00    -0.646 OA
BRANCH  16  18
HETATM   18  O   UNK N   1      37.693  49.601  41.272  0.00  0.00    -0.773 OA
HETATM   19  H   UNK N   1      37.019  50.183  40.894  0.00  0.00     0.167 HD
ENDBRANCH  16  18
ENDBRANCH  12  16
ENDBRANCH   7   8
ENDBRANCH   1   7
BRANCH   6  20
HETATM   20  O   UNK N   1      37.975  46.350  48.556  0.00  0.00    -0.388 OA
HETATM   21  H   UNK N   1      37.278  46.735  47.964  0.00  0.00     0.210 HD
ENDBRANCH   6  20
BRANCH   3  22
HETATM   22  C   UNK N   1      41.793  43.829  45.262  0.00  0.00     0.198 C 
BRANCH  22  23
HETATM   23  O   UNK N   1      41.158  43.756  44.012  0.00  0.00    -0.398 OA
HETATM   24  H   UNK N   1      41.637  43.066  43.483  0.00  0.00     0.209 HD
ENDBRANCH  22  23
ENDBRANCH   3  22
BRANCH   5  25
HETATM   25  O   UNK N   1      39.796  44.507  49.761  0.00  0.00    -0.390 OA
HETATM   26  H   UNK N   1      38.847  44.694  49.990  0.00  0.00     0.210 HD
ENDBRANCH   5  25
BRANCH   4  27
HETATM   27  O   UNK N   1      42.113  43.863  48.182  0.00  0.00    -0.390 OA
HETATM   28  H   UNK N   1      42.372  42.948  47.897  0.00  0.00     0.210 HD
ENDBRANCH   4  27
TORSDOF 10
ENDMDL
MODEL 7
REMARK VINA RESULT:      -5.3      1.667      3.596
REMARK  10 active torsions:
REMARK  status: ('A' for Active; 'I' for Inactive)
REMARK    1  A    between atoms: C_2  and  O_3 
REMARK    2  A    between atoms: C_2  and  C_5 
REMARK    3  A    between atoms: C_6  and  O_7 
REMARK    4  A    between atoms: C_11  and  O_13 
REMARK    5  A    between atoms: O_13  and  C_14 
REMARK    6  A    between atoms: C_16  and  C_26 
REMARK    7  A    between atoms: C_17  and  O_18 
REMARK    8  A    between atoms: C_20  and  O_21 
REMARK    9  A    between atoms: C_23  and  O_24 
REMARK   10  A    between atoms: C_26  and  O_27 
ROOT
HETATM    1  C   UNK N   1      39.982  44.858  47.381  0.00  0.00     0.298 C 
HETATM    2  O   UNK N   1      39.364  46.136  47.433  0.00  0.00    -0.348 OA
HETATM    3  C   UNK N   1      40.250  47.192  47.085  0.00  0.00     0.179 C 
HETATM    4  C   UNK N   1      40.812  47.022  45.648  0.00  0.00     0.180 C 
HETATM    5  C   UNK N   1      41.517  45.660  45.541  0.00  0.00     0.183 C 
HETATM    6  C   UNK N   1      40.537  44.559  45.975  0.00  0.00     0.205 C 
ENDROOT
BRANCH   1   7
HETATM    7  O   UNK N   1      40.984  44.737  48.339  0.00  0.00    -0.318 OA
BRANCH   7   8
HETATM    8  C   UNK N   1      40.782  44.387  49.639  0.00  0.00     0.073 A 
HETATM    9  C   UNK N   1      39.973  43.293  50.002  0.00  0.00     0.039 A 
HETATM   10  C   UNK N   1      39.818  42.947  51.343  0.00  0.00     0.040 A 
HETATM   11  C   UNK N   1      40.465  43.679  52.349  0.00  0.00     0.082 A 
HETATM   12  C   UNK N   1      41.275  44.786  52.001  0.00  0.00     0.073 A 
HETATM   13  C   UNK N   1      41.415  45.131  50.643  0.00  0.00     0.058 A 
BRANCH  11  14
HETATM   14  O   UNK N   1      40.320  43.311  53.639  0.00  0.00    -0.360 OA
HETATM   15  H   UNK N   1      40.000  42.431  53.888  0.00  0.00     0.217 HD
ENDBRANCH  11  14
BRANCH  12  16
HETATM   16  C   UNK N   1      42.004  45.573  53.037  0.00  0.00     0.179 C 
HETATM   17  O   UNK N   1      43.178  45.869  52.885  0.00  0.00    -0.646 OA
BRANCH  16  18
HETATM   18  O   UNK N   1      41.353  45.995  54.145  0.00  0.00    -0.773 OA
HETATM   19  H   UNK N   1      40.925  46.862  54.173  0.00  0.00     0.167 HD
ENDBRANCH  16  18
ENDBRANCH  12  16
ENDBRANCH   7   8
ENDBRANCH   1   7
BRANCH   6  20
HETATM   20  O   UNK N   1      41.134  43.285  45.923  0.00  0.00    -0.388 OA
HETATM   21  H   UNK N   1      40.502  42.670  45.468  0.00  0.00     0.210 HD
ENDBRANCH   6  20
BRANCH   3  22
HETATM   22  C   UNK N   1      39.476  48.518  47.209  0.00  0.00     0.198 C 
BRANCH  22  23
HETATM   23  O   UNK N   1      39.198  49.068  45.947  0.00  0.00    -0.398 OA
HETATM   24  H   UNK N   1      39.581  49.983  45.939  0.00  0.00     0.209 HD
ENDBRANCH  22  23
ENDBRANCH   3  22
BRANCH   5  25
HETATM   25  O   UNK N   1      41.985  45.428  44.235  0.00  0.00    -0.390 OA
HETATM   26  H   UNK N   1      42.383  44.517  44.214  0.00  0.00     0.210 HD
ENDBRANCH   5  25
BRANCH   4  27
HETATM   27  O   UNK N   1      41.716  48.060  45.365  0.00  0.00    -0.390 OA
HETATM   28  H   UNK N   1      41.867  48.553  46.214  0.00  0.00     0.210 HD
ENDBRANCH   4  27
TORSDOF 10
ENDMDL
MODEL 8
REMARK VINA RESULT:      -5.2     12.636     14.793
REMARK  10 active torsions:
REMARK  status: ('A' for Active; 'I' for Inactive)
REMARK    1  A    between atoms: C_2  and  O_3 
REMARK    2  A    between atoms: C_2  and  C_5 
REMARK    3  A    between atoms: C_6  and  O_7 
REMARK    4  A    between atoms: C_11  and  O_13 
REMARK    5  A    between atoms: O_13  and  C_14 
REMARK    6  A    between atoms: C_16  and  C_26 
REMARK    7  A    between atoms: C_17  and  O_18 
REMARK    8  A    between atoms: C_20  and  O_21 
REMARK    9  A    between atoms: C_23  and  O_24 
REMARK   10  A    between atoms: C_26  and  O_27 
ROOT
HETATM    1  C   UNK N   1      31.069  44.874  57.554  0.00  0.00     0.298 C 
HETATM    2  O   UNK N   1      32.363  44.303  57.686  0.00  0.00    -0.348 OA
HETATM    3  C   UNK N   1      32.448  43.375  58.761  0.00  0.00     0.179 C 
HETATM    4  C   UNK N   1      31.452  42.198  58.586  0.00  0.00     0.180 C 
HETATM    5  C   UNK N   1      30.026  42.760  58.462  0.00  0.00     0.183 C 
HETATM    6  C   UNK N   1      29.997  43.792  57.325  0.00  0.00     0.205 C 
ENDROOT
BRANCH   1   7
HETATM    7  O   UNK N   1      30.744  45.661  58.656  0.00  0.00    -0.318 OA
BRANCH   7   8
HETATM    8  C   UNK N   1      30.347  46.961  58.596  0.00  0.00     0.073 A 
HETATM    9  C   UNK N   1      29.733  47.606  59.687  0.00  0.00     0.039 A 
HETATM   10  C   UNK N   1      29.370  48.948  59.597  0.00  0.00     0.040 A 
HETATM   11  C   UNK N   1      29.611  49.676  58.423  0.00  0.00     0.082 A 
HETATM   12  C   UNK N   1      30.220  49.040  57.315  0.00  0.00     0.073 A 
HETATM   13  C   UNK N   1      30.572  47.680  57.416  0.00  0.00     0.058 A 
BRANCH  11  14
HETATM   14  O   UNK N   1      29.274  50.982  58.367  0.00  0.00    -0.360 OA
HETATM   15  H   UNK N   1      29.658  51.637  58.968  0.00  0.00     0.217 HD
ENDBRANCH  11  14
BRANCH  12  16
HETATM   16  C   UNK N   1      30.520  49.785  56.058  0.00  0.00     0.179 C 
HETATM   17  O   UNK N   1      31.667  50.085  55.769  0.00  0.00    -0.646 OA
BRANCH  16  18
HETATM   18  O   UNK N   1      29.518  50.105  55.208  0.00  0.00    -0.773 OA
HETATM   19  H   UNK N   1      28.681  49.619  55.217  0.00  0.00     0.167 HD
ENDBRANCH  16  18
ENDBRANCH  12  16
ENDBRANCH   7   8
ENDBRANCH   1   7
BRANCH   6  20
HETATM   20  O   UNK N   1      28.719  44.363  57.178  0.00  0.00    -0.388 OA
HETATM   21  H   UNK N   1      28.047  43.638  57.273  0.00  0.00     0.210 HD
ENDBRANCH   6  20
BRANCH   3  22
HETATM   22  C   UNK N   1      33.897  42.853  58.819  0.00  0.00     0.198 C 
BRANCH  22  23
HETATM   23  O   UNK N   1      34.271  42.530  60.133  0.00  0.00    -0.398 OA
HETATM   24  H   UNK N   1      33.877  41.642  60.337  0.00  0.00     0.209 HD
ENDBRANCH  22  23
ENDBRANCH   3  22
BRANCH   5  25
HETATM   25  O   UNK N   1      29.090  41.735  58.233  0.00  0.00    -0.390 OA
HETATM   26  H   UNK N   1      28.189  42.096  58.445  0.00  0.00     0.210 HD
ENDBRANCH   5  25
BRANCH   4  27
HETATM   27  O   UNK N   1      31.539  41.333  59.690  0.00  0.00    -0.390 OA
HETATM   28  H   UNK N   1      30.673  41.389  60.171  0.00  0.00     0.210 HD
ENDBRANCH   4  27
TORSDOF 10
ENDMDL
MODEL 9
REMARK VINA RESULT:      -5.1     11.791     14.969
REMARK  10 active torsions:
REMARK  status: ('A' for Active; 'I' for Inactive)
REMARK    1  A    between atoms: C_2  and  O_3 
REMARK    2  A    between atoms: C_2  and  C_5 
REMARK    3  A    between atoms: C_6  and  O_7 
REMARK    4  A    between atoms: C_11  and  O_13 
REMARK    5  A    between atoms: O_13  and  C_14 
REMARK    6  A    between atoms: C_16  and  C_26 
REMARK    7  A    between atoms: C_17  and  O_18 
REMARK    8  A    between atoms: C_20  and  O_21 
REMARK    9  A    between atoms: C_23  and  O_24 
REMARK   10  A    between atoms: C_26  and  O_27 
ROOT
HETATM    1  C   UNK N   1      30.323  43.115  56.865  0.00  0.00     0.298 C 
HETATM    2  O   UNK N   1      29.550  43.361  58.032  0.00  0.00    -0.348 OA
HETATM    3  C   UNK N   1      30.038  42.666  59.173  0.00  0.00     0.179 C 
HETATM    4  C   UNK N   1      31.500  43.066  59.508  0.00  0.00     0.180 C 
HETATM    5  C   UNK N   1      32.389  42.797  58.283  0.00  0.00     0.183 C 
HETATM    6  C   UNK N   1      31.794  43.525  57.068  0.00  0.00     0.205 C 
ENDROOT
BRANCH   1   7
HETATM    7  O   UNK N   1      30.235  41.784  56.467  0.00  0.00    -0.318 OA
BRANCH   7   8
HETATM    8  C   UNK N   1      29.529  41.336  55.393  0.00  0.00     0.073 A 
HETATM    9  C   UNK N   1      28.649  40.240  55.480  0.00  0.00     0.039 A 
HETATM   10  C   UNK N   1      27.921  39.833  54.365  0.00  0.00     0.040 A 
HETATM   11  C   UNK N   1      28.049  40.506  53.142  0.00  0.00     0.082 A 
HETATM   12  C   UNK N   1      28.935  41.605  53.036  0.00  0.00     0.073 A 
HETATM   13  C   UNK N   1      29.674  42.000  54.168  0.00  0.00     0.058 A 
BRANCH  11  14
HETATM   14  O   UNK N   1      27.315  40.110  52.081  0.00  0.00    -0.360 OA
HETATM   15  H   UNK N   1      26.364  40.282  52.024  0.00  0.00     0.217 HD
ENDBRANCH  11  14
BRANCH  12  16
HETATM   16  C   UNK N   1      29.081  42.367  51.762  0.00  0.00     0.179 C 
HETATM   17  O   UNK N   1      28.799  43.554  51.708  0.00  0.00    -0.646 OA
BRANCH  16  18
HETATM   18  O   UNK N   1      29.562  41.750  50.658  0.00  0.00    -0.773 OA
HETATM   19  H   UNK N   1      30.324  41.156  50.711  0.00  0.00     0.167 HD
ENDBRANCH  16  18
ENDBRANCH  12  16
ENDBRANCH   7   8
ENDBRANCH   1   7
BRANCH   6  20
HETATM   20  O   UNK N   1      32.552  43.295  55.905  0.00  0.00    -0.388 OA
HETATM   21  H   UNK N   1      32.736  44.175  55.482  0.00  0.00     0.210 HD
ENDBRANCH   6  20
BRANCH   3  22
HETATM   22  C   UNK N   1      29.105  42.988  60.356  0.00  0.00     0.198 C 
BRANCH  22  23
HETATM   23  O   UNK N   1      29.630  44.015  61.156  0.00  0.00    -0.398 OA
HETATM   24  H   UNK N   1      30.294  43.598  61.765  0.00  0.00     0.209 HD
ENDBRANCH  22  23
ENDBRANCH   3  22
BRANCH   5  25
HETATM   25  O   UNK N   1      33.715  43.208  58.513  0.00  0.00    -0.390 OA
HETATM   26  H   UNK N   1      33.792  43.456  59.473  0.00  0.00     0.210 HD
ENDBRANCH   5  25
BRANCH   4  27
HETATM   27  O   UNK N   1      31.955  42.324  60.611  0.00  0.00    -0.390 OA
HETATM   28  H   UNK N   1      31.472  41.457  60.597  0.00  0.00     0.210 HD
ENDBRANCH   4  27
TORSDOF 10
ENDMDL
