MODEL 1
REMARK VINA RESULT:      -7.7      0.000      0.000
REMARK  9 active torsions:
REMARK  status: ('A' for Active; 'I' for Inactive)
REMARK    1  A    between atoms: C_2  and  C_5 
REMARK    2  A    between atoms: C_5  and  O_6 
REMARK    3  A    between atoms: C_5  and  C_8 
REMARK    4  A    between atoms: C_5  and  C_25 
REMARK    5  A    between atoms: C_8  and  O_10 
REMARK    6  A    between atoms: O_10  and  C_11 
REMARK    7  A    between atoms: C_11  and  C_12 
REMARK    8  A    between atoms: C_12  and  C_13 
REMARK    9  A    between atoms: C_15  and  O_16 
ROOT
HETATM    1  C   UNK N   1      41.545  45.845  45.966  0.00  0.00     0.308 C 
HETATM    2  O   UNK N   1      41.482  45.812  44.745  0.00  0.00    -0.261 OA
ENDROOT
BRANCH   1   3
HETATM    3  C   UNK N   1      41.011  44.681  46.806  0.00  0.00     0.273 C 
BRANCH   3   4
HETATM    4  C   UNK N   1      41.816  43.439  46.319  0.00  0.00     0.432 C 
HETATM    5  F   UNK N   1      42.008  42.517  47.330  0.00  0.00    -0.167 F 
HETATM    6  F   UNK N   1      43.058  43.813  45.829  0.00  0.00    -0.167 F 
HETATM    7  F   UNK N   1      41.120  42.796  45.307  0.00  0.00    -0.167 F 
ENDBRANCH   3   4
BRANCH   3   8
HETATM    8  O   UNK N   1      39.637  44.412  46.511  0.00  0.00    -0.363 OA
HETATM    9  C   UNK N   1      38.755  45.485  46.803  0.00  0.00     0.204 C 
ENDBRANCH   3   8
BRANCH   3  10
HETATM   10  C   UNK N   1      41.226  44.901  48.329  0.00  0.00    -0.005 A 
HETATM   11  C   UNK N   1      40.518  44.121  49.269  0.00  0.00     0.011 A 
HETATM   12  C   UNK N   1      40.704  44.310  50.642  0.00  0.00     0.001 A 
HETATM   13  C   UNK N   1      41.583  45.287  51.104  0.00  0.00     0.000 A 
HETATM   14  C   UNK N   1      42.277  46.085  50.195  0.00  0.00     0.001 A 
HETATM   15  C   UNK N   1      42.104  45.898  48.823  0.00  0.00     0.011 A 
ENDBRANCH   3  10
ENDBRANCH   1   3
BRANCH   1  16
HETATM   16  O   UNK N   1      42.155  46.890  46.595  0.00  0.00    -0.313 OA
BRANCH  16  17
HETATM   17  C   UNK N   1      42.295  48.149  46.042  0.00  0.00     0.132 C 
HETATM   18  C   UNK N   1      43.599  48.756  46.554  0.00  0.00     0.040 C 
BRANCH  17  19
HETATM   19  C   UNK N   1      41.064  49.011  46.392  0.00  0.00     0.070 C 
BRANCH  19  20
HETATM   20  C   UNK N   1      40.187  49.248  45.194  0.00  0.00    -0.050 A 
HETATM   21  C   UNK N   1      40.474  50.350  44.349  0.00  0.00     0.047 A 
HETATM   22  C   UNK N   1      39.662  50.628  43.227  0.00  0.00     0.105 A 
HETATM   23  C   UNK N   1      38.589  49.771  42.987  0.00  0.00     0.138 A 
HETATM   24  O   UNK N   1      37.693  49.824  42.003  0.00  0.00    -0.320 OA
HETATM   25  C   UNK N   1      38.318  48.723  43.778  0.00  0.00     0.108 A 
HETATM   26  C   UNK N   1      36.800  48.760  42.161  0.00  0.00     0.352 A 
HETATM   27  O   UNK N   1      37.243  48.089  43.307  0.00  0.00    -0.323 OA
HETATM   28  C   UNK N   1      39.083  48.414  44.900  0.00  0.00     0.047 A 
BRANCH  22  29
HETATM   29  O   UNK N   1      39.889  51.682  42.401  0.00  0.00    -0.353 OA
HETATM   30  C   UNK N   1      40.051  52.986  42.829  0.00  0.00     0.210 C 
ENDBRANCH  22  29
ENDBRANCH  19  20
ENDBRANCH  17  19
ENDBRANCH  16  17
ENDBRANCH   1  16
TORSDOF 9
ENDMDL
MODEL 2
REMARK VINA RESULT:      -7.4      2.073      3.538
REMARK  9 active torsions:
REMARK  status: ('A' for Active; 'I' for Inactive)
REMARK    1  A    between atoms: C_2  and  C_5 
REMARK    2  A    between atoms: C_5  and  O_6 
REMARK    3  A    between atoms: C_5  and  C_8 
REMARK    4  A    between atoms: C_5  and  C_25 
REMARK    5  A    between atoms: C_8  and  O_10 
REMARK    6  A    between atoms: O_10  and  C_11 
REMARK    7  A    between atoms: C_11  and  C_12 
REMARK    8  A    between atoms: C_12  and  C_13 
REMARK    9  A    between atoms: C_15  and  O_16 
ROOT
HETATM    1  C   UNK N   1      40.166  45.431  48.535  0.00  0.00     0.308 C 
HETATM    2  O   UNK N   1      39.219  45.944  49.116  0.00  0.00    -0.261 OA
ENDROOT
BRANCH   1   3
HETATM    3  C   UNK N   1      41.469  45.133  49.280  0.00  0.00     0.273 C 
BRANCH   3   4
HETATM    4  C   UNK N   1      42.302  46.443  49.160  0.00  0.00     0.432 C 
HETATM    5  F   UNK N   1      42.790  46.632  47.881  0.00  0.00    -0.167 F 
HETATM    6  F   UNK N   1      43.376  46.433  50.037  0.00  0.00    -0.167 F 
HETATM    7  F   UNK N   1      41.503  47.536  49.456  0.00  0.00    -0.167 F 
ENDBRANCH   3   4
BRANCH   3   8
HETATM    8  O   UNK N   1      42.225  44.112  48.621  0.00  0.00    -0.363 OA
HETATM    9  C   UNK N   1      41.590  42.843  48.589  0.00  0.00     0.204 C 
ENDBRANCH   3   8
BRANCH   3  10
HETATM   10  C   UNK N   1      41.230  44.778  50.774  0.00  0.00    -0.005 A 
HETATM   11  C   UNK N   1      40.265  43.812  51.132  0.00  0.00     0.011 A 
HETATM   12  C   UNK N   1      40.042  43.484  52.473  0.00  0.00     0.001 A 
HETATM   13  C   UNK N   1      40.762  44.123  53.481  0.00  0.00     0.000 A 
HETATM   14  C   UNK N   1      41.704  45.096  53.154  0.00  0.00     0.001 A 
HETATM   15  C   UNK N   1      41.939  45.424  51.818  0.00  0.00     0.011 A 
ENDBRANCH   3  10
ENDBRANCH   1   3
BRANCH   1  16
HETATM   16  O   UNK N   1      40.047  45.053  47.230  0.00  0.00    -0.313 OA
BRANCH  16  17
HETATM   17  C   UNK N   1      40.090  45.932  46.164  0.00  0.00     0.132 C 
HETATM   18  C   UNK N   1      41.455  45.809  45.493  0.00  0.00     0.040 C 
BRANCH  17  19
HETATM   19  C   UNK N   1      39.801  47.364  46.659  0.00  0.00     0.070 C 
BRANCH  19  20
HETATM   20  C   UNK N   1      39.541  48.310  45.519  0.00  0.00    -0.050 A 
HETATM   21  C   UNK N   1      38.511  47.995  44.597  0.00  0.00     0.047 A 
HETATM   22  C   UNK N   1      38.248  48.839  43.495  0.00  0.00     0.105 A 
HETATM   23  C   UNK N   1      39.030  49.986  43.368  0.00  0.00     0.138 A 
HETATM   24  O   UNK N   1      38.972  50.926  42.426  0.00  0.00    -0.320 OA
HETATM   25  C   UNK N   1      40.000  50.292  44.241  0.00  0.00     0.108 A 
HETATM   26  C   UNK N   1      39.948  51.888  42.702  0.00  0.00     0.352 A 
HETATM   27  O   UNK N   1      40.575  51.437  43.870  0.00  0.00    -0.323 OA
HETATM   28  C   UNK N   1      40.303  49.487  45.337  0.00  0.00     0.047 A 
BRANCH  22  29
HETATM   29  O   UNK N   1      37.283  48.569  42.578  0.00  0.00    -0.353 OA
HETATM   30  C   UNK N   1      36.160  47.802  42.832  0.00  0.00     0.210 C 
ENDBRANCH  22  29
ENDBRANCH  19  20
ENDBRANCH  17  19
ENDBRANCH  16  17
ENDBRANCH   1  16
TORSDOF 9
ENDMDL
MODEL 3
REMARK VINA RESULT:      -7.3      2.730      7.258
REMARK  9 active torsions:
REMARK  status: ('A' for Active; 'I' for Inactive)
REMARK    1  A    between atoms: C_2  and  C_5 
REMARK    2  A    between atoms: C_5  and  O_6 
REMARK    3  A    between atoms: C_5  and  C_8 
REMARK    4  A    between atoms: C_5  and  C_25 
REMARK    5  A    between atoms: C_8  and  O_10 
REMARK    6  A    between atoms: O_10  and  C_11 
REMARK    7  A    between atoms: C_11  and  C_12 
REMARK    8  A    between atoms: C_12  and  C_13 
REMARK    9  A    between atoms: C_15  and  O_16 
ROOT
HETATM    1  C   UNK N   1      40.999  47.125  45.427  0.00  0.00     0.308 C 
HETATM    2  O   UNK N   1      42.029  47.728  45.697  0.00  0.00    -0.261 OA
ENDROOT
BRANCH   1   3
HETATM    3  C   UNK N   1      39.642  47.831  45.489  0.00  0.00     0.273 C 
BRANCH   3   4
HETATM    4  C   UNK N   1      39.540  48.366  46.948  0.00  0.00     0.432 C 
HETATM    5  F   UNK N   1      38.977  47.437  47.802  0.00  0.00    -0.167 F 
HETATM    6  F   UNK N   1      38.779  49.523  47.001  0.00  0.00    -0.167 F 
HETATM    7  F   UNK N   1      40.808  48.650  47.433  0.00  0.00    -0.167 F 
ENDBRANCH   3   4
BRANCH   3   8
HETATM    8  O   UNK N   1      38.565  46.904  45.322  0.00  0.00    -0.363 OA
HETATM    9  C   UNK N   1      38.167  46.249  46.517  0.00  0.00     0.204 C 
ENDBRANCH   3   8
BRANCH   3  10
HETATM   10  C   UNK N   1      39.538  49.003  44.474  0.00  0.00    -0.005 A 
HETATM   11  C   UNK N   1      38.592  48.956  43.426  0.00  0.00     0.011 A 
HETATM   12  C   UNK N   1      38.488  50.005  42.508  0.00  0.00     0.001 A 
HETATM   13  C   UNK N   1      39.333  51.110  42.604  0.00  0.00     0.000 A 
HETATM   14  C   UNK N   1      40.288  51.168  43.616  0.00  0.00     0.001 A 
HETATM   15  C   UNK N   1      40.394  50.130  44.543  0.00  0.00     0.011 A 
ENDBRANCH   3  10
ENDBRANCH   1   3
BRANCH   1  16
HETATM   16  O   UNK N   1      41.054  45.831  44.999  0.00  0.00    -0.313 OA
BRANCH  16  17
HETATM   17  C   UNK N   1      41.635  44.803  45.718  0.00  0.00     0.132 C 
HETATM   18  C   UNK N   1      42.263  43.822  44.731  0.00  0.00     0.040 C 
BRANCH  17  19
HETATM   19  C   UNK N   1      40.577  44.137  46.622  0.00  0.00     0.070 C 
BRANCH  19  20
HETATM   20  C   UNK N   1      40.823  44.424  48.077  0.00  0.00    -0.050 A 
HETATM   21  C   UNK N   1      41.675  45.503  48.423  0.00  0.00     0.047 A 
HETATM   22  C   UNK N   1      41.957  45.794  49.776  0.00  0.00     0.105 A 
HETATM   23  C   UNK N   1      41.355  44.988  50.741  0.00  0.00     0.138 A 
HETATM   24  O   UNK N   1      41.464  45.065  52.066  0.00  0.00    -0.320 OA
HETATM   25  C   UNK N   1      40.542  43.971  50.420  0.00  0.00     0.108 A 
HETATM   26  C   UNK N   1      40.683  44.052  52.632  0.00  0.00     0.352 A 
HETATM   27  O   UNK N   1      40.117  43.384  51.540  0.00  0.00    -0.323 OA
HETATM   28  C   UNK N   1      40.242  43.640  49.101  0.00  0.00     0.047 A 
BRANCH  22  29
HETATM   29  O   UNK N   1      42.781  46.807  50.152  0.00  0.00    -0.353 OA
HETATM   30  C   UNK N   1      43.095  47.891  49.354  0.00  0.00     0.210 C 
ENDBRANCH  22  29
ENDBRANCH  19  20
ENDBRANCH  17  19
ENDBRANCH  16  17
ENDBRANCH   1  16
TORSDOF 9
ENDMDL
MODEL 4
REMARK VINA RESULT:      -7.3      0.642      2.011
REMARK  9 active torsions:
REMARK  status: ('A' for Active; 'I' for Inactive)
REMARK    1  A    between atoms: C_2  and  C_5 
REMARK    2  A    between atoms: C_5  and  O_6 
REMARK    3  A    between atoms: C_5  and  C_8 
REMARK    4  A    between atoms: C_5  and  C_25 
REMARK    5  A    between atoms: C_8  and  O_10 
REMARK    6  A    between atoms: O_10  and  C_11 
REMARK    7  A    between atoms: C_11  and  C_12 
REMARK    8  A    between atoms: C_12  and  C_13 
REMARK    9  A    between atoms: C_15  and  O_16 
ROOT
HETATM    1  C   UNK N   1      41.670  45.576  45.957  0.00  0.00     0.308 C 
HETATM    2  O   UNK N   1      41.530  45.650  44.743  0.00  0.00    -0.261 OA
ENDROOT
BRANCH   1   3
HETATM    3  C   UNK N   1      41.183  44.344  46.725  0.00  0.00     0.273 C 
BRANCH   3   4
HETATM    4  C   UNK N   1      42.030  43.165  46.160  0.00  0.00     0.432 C 
HETATM    5  F   UNK N   1      42.252  42.186  47.109  0.00  0.00    -0.167 F 
HETATM    6  F   UNK N   1      43.259  43.611  45.700  0.00  0.00    -0.167 F 
HETATM    7  F   UNK N   1      41.357  42.567  45.106  0.00  0.00    -0.167 F 
ENDBRANCH   3   4
BRANCH   3   8
HETATM    8  O   UNK N   1      39.819  44.045  46.417  0.00  0.00    -0.363 OA
HETATM    9  C   UNK N   1      38.879  44.937  46.997  0.00  0.00     0.204 C 
ENDBRANCH   3   8
BRANCH   3  10
HETATM   10  C   UNK N   1      41.398  44.478  48.257  0.00  0.00    -0.005 A 
HETATM   11  C   UNK N   1      41.240  43.356  49.101  0.00  0.00     0.011 A 
HETATM   12  C   UNK N   1      41.432  43.465  50.481  0.00  0.00     0.001 A 
HETATM   13  C   UNK N   1      41.766  44.693  51.050  0.00  0.00     0.000 A 
HETATM   14  C   UNK N   1      41.904  45.819  50.241  0.00  0.00     0.001 A 
HETATM   15  C   UNK N   1      41.723  45.719  48.861  0.00  0.00     0.011 A 
ENDBRANCH   3  10
ENDBRANCH   1   3
BRANCH   1  16
HETATM   16  O   UNK N   1      42.326  46.562  46.634  0.00  0.00    -0.313 OA
BRANCH  16  17
HETATM   17  C   UNK N   1      42.300  47.896  46.274  0.00  0.00     0.132 C 
HETATM   18  C   UNK N   1      43.432  48.614  47.004  0.00  0.00     0.040 C 
BRANCH  17  19
HETATM   19  C   UNK N   1      40.915  48.494  46.596  0.00  0.00     0.070 C 
BRANCH  19  20
HETATM   20  C   UNK N   1      40.250  49.060  45.371  0.00  0.00    -0.050 A 
HETATM   21  C   UNK N   1      39.156  48.358  44.806  0.00  0.00     0.047 A 
HETATM   22  C   UNK N   1      38.517  48.836  43.640  0.00  0.00     0.105 A 
HETATM   23  C   UNK N   1      39.000  50.022  43.089  0.00  0.00     0.138 A 
HETATM   24  O   UNK N   1      38.567  50.666  42.006  0.00  0.00    -0.320 OA
HETATM   25  C   UNK N   1      40.029  50.695  43.624  0.00  0.00     0.108 A 
HETATM   26  C   UNK N   1      39.350  51.812  41.832  0.00  0.00     0.352 A 
HETATM   27  O   UNK N   1      40.267  51.783  42.890  0.00  0.00    -0.323 OA
HETATM   28  C   UNK N   1      40.696  50.258  44.766  0.00  0.00     0.047 A 
BRANCH  22  29
HETATM   29  O   UNK N   1      37.478  48.187  43.055  0.00  0.00    -0.353 OA
HETATM   30  C   UNK N   1      36.206  48.714  42.922  0.00  0.00     0.210 C 
ENDBRANCH  22  29
ENDBRANCH  19  20
ENDBRANCH  17  19
ENDBRANCH  16  17
ENDBRANCH   1  16
TORSDOF 9
ENDMDL
MODEL 5
REMARK VINA RESULT:      -7.1      1.451      3.065
REMARK  9 active torsions:
REMARK  status: ('A' for Active; 'I' for Inactive)
REMARK    1  A    between atoms: C_2  and  C_5 
REMARK    2  A    between atoms: C_5  and  O_6 
REMARK    3  A    between atoms: C_5  and  C_8 
REMARK    4  A    between atoms: C_5  and  C_25 
REMARK    5  A    between atoms: C_8  and  O_10 
REMARK    6  A    between atoms: O_10  and  C_11 
REMARK    7  A    between atoms: C_11  and  C_12 
REMARK    8  A    between atoms: C_12  and  C_13 
REMARK    9  A    between atoms: C_15  and  O_16 
ROOT
HETATM    1  C   UNK N   1      41.300  45.786  48.537  0.00  0.00     0.308 C 
HETATM    2  O   UNK N   1      41.650  46.750  49.206  0.00  0.00    -0.261 OA
ENDROOT
BRANCH   1   3
HETATM    3  C   UNK N   1      40.758  44.524  49.213  0.00  0.00     0.273 C 
BRANCH   3   4
HETATM    4  C   UNK N   1      41.595  43.359  48.604  0.00  0.00     0.432 C 
HETATM    5  F   UNK N   1      41.523  43.337  47.225  0.00  0.00    -0.167 F 
HETATM    6  F   UNK N   1      41.161  42.132  49.082  0.00  0.00    -0.167 F 
HETATM    7  F   UNK N   1      42.930  43.515  48.941  0.00  0.00    -0.167 F 
ENDBRANCH   3   4
BRANCH   3   8
HETATM    8  O   UNK N   1      39.398  44.279  48.846  0.00  0.00    -0.363 OA
HETATM    9  C   UNK N   1      38.581  45.440  48.817  0.00  0.00     0.204 C 
ENDBRANCH   3   8
BRANCH   3  10
HETATM   10  C   UNK N   1      40.926  44.560  50.757  0.00  0.00    -0.005 A 
HETATM   11  C   UNK N   1      41.915  45.377  51.348  0.00  0.00     0.011 A 
HETATM   12  C   UNK N   1      42.074  45.419  52.737  0.00  0.00     0.001 A 
HETATM   13  C   UNK N   1      41.267  44.636  53.560  0.00  0.00     0.000 A 
HETATM   14  C   UNK N   1      40.299  43.805  52.999  0.00  0.00     0.001 A 
HETATM   15  C   UNK N   1      40.127  43.764  51.615  0.00  0.00     0.011 A 
ENDBRANCH   3  10
ENDBRANCH   1   3
BRANCH   1  16
HETATM   16  O   UNK N   1      41.322  45.851  47.175  0.00  0.00    -0.313 OA
BRANCH  16  17
HETATM   17  C   UNK N   1      41.362  47.032  46.458  0.00  0.00     0.132 C 
HETATM   18  C   UNK N   1      42.585  47.826  46.907  0.00  0.00     0.040 C 
BRANCH  17  19
HETATM   19  C   UNK N   1      40.044  47.809  46.662  0.00  0.00     0.070 C 
BRANCH  19  20
HETATM   20  C   UNK N   1      39.700  48.653  45.466  0.00  0.00    -0.050 A 
HETATM   21  C   UNK N   1      38.652  48.226  44.612  0.00  0.00     0.047 A 
HETATM   22  C   UNK N   1      38.310  48.971  43.461  0.00  0.00     0.105 A 
HETATM   23  C   UNK N   1      39.035  50.136  43.218  0.00  0.00     0.138 A 
HETATM   24  O   UNK N   1      38.900  50.998  42.211  0.00  0.00    -0.320 OA
HETATM   25  C   UNK N   1      40.022  50.549  44.025  0.00  0.00     0.108 A 
HETATM   26  C   UNK N   1      39.841  52.019  42.375  0.00  0.00     0.352 A 
HETATM   27  O   UNK N   1      40.531  51.685  43.546  0.00  0.00    -0.323 OA
HETATM   28  C   UNK N   1      40.401  49.843  45.165  0.00  0.00     0.047 A 
BRANCH  22  29
HETATM   29  O   UNK N   1      37.325  48.590  42.607  0.00  0.00    -0.353 OA
HETATM   30  C   UNK N   1      36.318  47.699  42.927  0.00  0.00     0.210 C 
ENDBRANCH  22  29
ENDBRANCH  19  20
ENDBRANCH  17  19
ENDBRANCH  16  17
ENDBRANCH   1  16
TORSDOF 9
ENDMDL
MODEL 6
REMARK VINA RESULT:      -7.0      1.653      3.063
REMARK  9 active torsions:
REMARK  status: ('A' for Active; 'I' for Inactive)
REMARK    1  A    between atoms: C_2  and  C_5 
REMARK    2  A    between atoms: C_5  and  O_6 
REMARK    3  A    between atoms: C_5  and  C_8 
REMARK    4  A    between atoms: C_5  and  C_25 
REMARK    5  A    between atoms: C_8  and  O_10 
REMARK    6  A    between atoms: O_10  and  C_11 
REMARK    7  A    between atoms: C_11  and  C_12 
REMARK    8  A    between atoms: C_12  and  C_13 
REMARK    9  A    between atoms: C_15  and  O_16 
ROOT
HETATM    1  C   UNK N   1      40.526  46.131  47.984  0.00  0.00     0.308 C 
HETATM    2  O   UNK N   1      39.325  46.221  47.766  0.00  0.00    -0.261 OA
ENDROOT
BRANCH   1   3
HETATM    3  C   UNK N   1      41.149  44.788  48.374  0.00  0.00     0.273 C 
BRANCH   3   4
HETATM    4  C   UNK N   1      40.018  44.031  49.131  0.00  0.00     0.432 C 
HETATM    5  F   UNK N   1      40.486  42.891  49.755  0.00  0.00    -0.167 F 
HETATM    6  F   UNK N   1      38.998  43.666  48.266  0.00  0.00    -0.167 F 
HETATM    7  F   UNK N   1      39.487  44.847  50.118  0.00  0.00    -0.167 F 
ENDBRANCH   3   4
BRANCH   3   8
HETATM    8  O   UNK N   1      42.216  44.961  49.310  0.00  0.00    -0.363 OA
HETATM    9  C   UNK N   1      41.926  45.864  50.367  0.00  0.00     0.204 C 
ENDBRANCH   3   8
BRANCH   3  10
HETATM   10  C   UNK N   1      41.613  43.969  47.138  0.00  0.00    -0.005 A 
HETATM   11  C   UNK N   1      41.327  44.425  45.832  0.00  0.00     0.011 A 
HETATM   12  C   UNK N   1      41.741  43.697  44.712  0.00  0.00     0.001 A 
HETATM   13  C   UNK N   1      42.431  42.496  44.870  0.00  0.00     0.000 A 
HETATM   14  C   UNK N   1      42.706  42.015  46.149  0.00  0.00     0.001 A 
HETATM   15  C   UNK N   1      42.304  42.739  47.273  0.00  0.00     0.011 A 
ENDBRANCH   3  10
ENDBRANCH   1   3
BRANCH   1  16
HETATM   16  O   UNK N   1      41.337  47.213  47.813  0.00  0.00    -0.313 OA
BRANCH  16  17
HETATM   17  C   UNK N   1      41.537  47.847  46.601  0.00  0.00     0.132 C 
HETATM   18  C   UNK N   1      43.034  48.087  46.424  0.00  0.00     0.040 C 
BRANCH  17  19
HETATM   19  C   UNK N   1      40.719  49.155  46.557  0.00  0.00     0.070 C 
BRANCH  19  20
HETATM   20  C   UNK N   1      39.891  49.256  45.305  0.00  0.00    -0.050 A 
HETATM   21  C   UNK N   1      40.166  50.304  44.392  0.00  0.00     0.047 A 
HETATM   22  C   UNK N   1      39.398  50.456  43.216  0.00  0.00     0.105 A 
HETATM   23  C   UNK N   1      38.380  49.530  42.995  0.00  0.00     0.138 A 
HETATM   24  O   UNK N   1      37.531  49.464  41.970  0.00  0.00    -0.320 OA
HETATM   25  C   UNK N   1      38.120  48.532  43.852  0.00  0.00     0.108 A 
HETATM   26  C   UNK N   1      36.683  48.370  42.170  0.00  0.00     0.352 A 
HETATM   27  O   UNK N   1      37.101  47.810  43.383  0.00  0.00    -0.323 OA
HETATM   28  C   UNK N   1      38.844  48.347  45.027  0.00  0.00     0.047 A 
BRANCH  22  29
HETATM   29  O   UNK N   1      39.615  51.455  42.322  0.00  0.00    -0.353 OA
HETATM   30  C   UNK N   1      40.031  52.729  42.663  0.00  0.00     0.210 C 
ENDBRANCH  22  29
ENDBRANCH  19  20
ENDBRANCH  17  19
ENDBRANCH  16  17
ENDBRANCH   1  16
TORSDOF 9
ENDMDL
MODEL 7
REMARK VINA RESULT:      -6.8      1.441      2.103
REMARK  9 active torsions:
REMARK  status: ('A' for Active; 'I' for Inactive)
REMARK    1  A    between atoms: C_2  and  C_5 
REMARK    2  A    between atoms: C_5  and  O_6 
REMARK    3  A    between atoms: C_5  and  C_8 
REMARK    4  A    between atoms: C_5  and  C_25 
REMARK    5  A    between atoms: C_8  and  O_10 
REMARK    6  A    between atoms: O_10  and  C_11 
REMARK    7  A    between atoms: C_11  and  C_12 
REMARK    8  A    between atoms: C_12  and  C_13 
REMARK    9  A    between atoms: C_15  and  O_16 
ROOT
HETATM    1  C   UNK N   1      41.577  45.860  48.730  0.00  0.00     0.308 C 
HETATM    2  O   UNK N   1      41.810  46.815  49.458  0.00  0.00    -0.261 OA
ENDROOT
BRANCH   1   3
HETATM    3  C   UNK N   1      40.891  44.607  49.281  0.00  0.00     0.273 C 
BRANCH   3   4
HETATM    4  C   UNK N   1      41.670  43.417  48.646  0.00  0.00     0.432 C 
HETATM    5  F   UNK N   1      43.018  43.460  48.949  0.00  0.00    -0.167 F 
HETATM    6  F   UNK N   1      41.534  43.414  47.266  0.00  0.00    -0.167 F 
HETATM    7  F   UNK N   1      41.179  42.218  49.139  0.00  0.00    -0.167 F 
ENDBRANCH   3   4
BRANCH   3   8
HETATM    8  O   UNK N   1      39.543  44.503  48.815  0.00  0.00    -0.363 OA
HETATM    9  C   UNK N   1      38.808  45.716  48.872  0.00  0.00     0.204 C 
ENDBRANCH   3   8
BRANCH   3  10
HETATM   10  C   UNK N   1      40.957  44.530  50.832  0.00  0.00    -0.005 A 
HETATM   11  C   UNK N   1      40.066  43.696  51.543  0.00  0.00     0.011 A 
HETATM   12  C   UNK N   1      40.117  43.617  52.937  0.00  0.00     0.001 A 
HETATM   13  C   UNK N   1      41.041  44.379  53.651  0.00  0.00     0.000 A 
HETATM   14  C   UNK N   1      41.915  45.226  52.973  0.00  0.00     0.001 A 
HETATM   15  C   UNK N   1      41.878  45.305  51.580  0.00  0.00     0.011 A 
ENDBRANCH   3  10
ENDBRANCH   1   3
BRANCH   1  16
HETATM   16  O   UNK N   1      41.863  45.926  47.398  0.00  0.00    -0.313 OA
BRANCH  16  17
HETATM   17  C   UNK N   1      41.866  47.099  46.665  0.00  0.00     0.132 C 
HETATM   18  C   UNK N   1      43.170  47.839  46.947  0.00  0.00     0.040 C 
BRANCH  17  19
HETATM   19  C   UNK N   1      40.620  47.937  47.021  0.00  0.00     0.070 C 
BRANCH  19  20
HETATM   20  C   UNK N   1      39.983  48.541  45.800  0.00  0.00    -0.050 A 
HETATM   21  C   UNK N   1      40.457  49.793  45.335  0.00  0.00     0.047 A 
HETATM   22  C   UNK N   1      39.872  50.412  44.208  0.00  0.00     0.105 A 
HETATM   23  C   UNK N   1      38.830  49.735  43.577  0.00  0.00     0.138 A 
HETATM   24  O   UNK N   1      38.128  50.109  42.509  0.00  0.00    -0.320 OA
HETATM   25  C   UNK N   1      38.382  48.546  44.008  0.00  0.00     0.108 A 
HETATM   26  C   UNK N   1      37.184  49.116  42.231  0.00  0.00     0.352 A 
HETATM   27  O   UNK N   1      37.388  48.142  43.216  0.00  0.00    -0.323 OA
HETATM   28  C   UNK N   1      38.921  47.902  45.119  0.00  0.00     0.047 A 
BRANCH  22  29
HETATM   29  O   UNK N   1      40.282  51.619  43.738  0.00  0.00    -0.353 OA
HETATM   30  C   UNK N   1      39.987  52.105  42.478  0.00  0.00     0.210 C 
ENDBRANCH  22  29
ENDBRANCH  19  20
ENDBRANCH  17  19
ENDBRANCH  16  17
ENDBRANCH   1  16
TORSDOF 9
ENDMDL
MODEL 8
REMARK VINA RESULT:      -6.5     10.421     14.404
REMARK  9 active torsions:
REMARK  status: ('A' for Active; 'I' for Inactive)
REMARK    1  A    between atoms: C_2  and  C_5 
REMARK    2  A    between atoms: C_5  and  O_6 
REMARK    3  A    between atoms: C_5  and  C_8 
REMARK    4  A    between atoms: C_5  and  C_25 
REMARK    5  A    between atoms: C_8  and  O_10 
REMARK    6  A    between atoms: O_10  and  C_11 
REMARK    7  A    between atoms: C_11  and  C_12 
REMARK    8  A    between atoms: C_12  and  C_13 
REMARK    9  A    between atoms: C_15  and  O_16 
ROOT
HETATM    1  C   UNK N   1      28.632  55.290  39.594  0.00  0.00     0.308 C 
HETATM    2  O   UNK N   1      28.288  56.362  39.114  0.00  0.00    -0.261 OA
ENDROOT
BRANCH   1   3
HETATM    3  C   UNK N   1      28.578  54.008  38.760  0.00  0.00     0.273 C 
BRANCH   3   4
HETATM    4  C   UNK N   1      29.323  54.363  37.439  0.00  0.00     0.432 C 
HETATM    5  F   UNK N   1      29.725  53.233  36.752  0.00  0.00    -0.167 F 
HETATM    6  F   UNK N   1      30.442  55.140  37.692  0.00  0.00    -0.167 F 
HETATM    7  F   UNK N   1      28.477  55.071  36.599  0.00  0.00    -0.167 F 
ENDBRANCH   3   4
BRANCH   3   8
HETATM    8  O   UNK N   1      27.234  53.683  38.391  0.00  0.00    -0.363 OA
HETATM    9  C   UNK N   1      26.258  54.051  39.354  0.00  0.00     0.204 C 
ENDBRANCH   3   8
BRANCH   3  10
HETATM   10  C   UNK N   1      29.272  52.811  39.467  0.00  0.00    -0.005 A 
HETATM   11  C   UNK N   1      30.675  52.793  39.626  0.00  0.00     0.011 A 
HETATM   12  C   UNK N   1      31.310  51.722  40.261  0.00  0.00     0.001 A 
HETATM   13  C   UNK N   1      30.565  50.643  40.734  0.00  0.00     0.000 A 
HETATM   14  C   UNK N   1      29.181  50.628  40.570  0.00  0.00     0.001 A 
HETATM   15  C   UNK N   1      28.537  51.696  39.944  0.00  0.00     0.011 A 
ENDBRANCH   3  10
ENDBRANCH   1   3
BRANCH   1  16
HETATM   16  O   UNK N   1      29.136  55.236  40.861  0.00  0.00    -0.313 OA
BRANCH  16  17
HETATM   17  C   UNK N   1      30.007  56.171  41.387  0.00  0.00     0.132 C 
HETATM   18  C   UNK N   1      31.391  55.929  40.789  0.00  0.00     0.040 C 
BRANCH  17  19
HETATM   19  C   UNK N   1      30.003  56.077  42.927  0.00  0.00     0.070 C 
BRANCH  19  20
HETATM   20  C   UNK N   1      31.076  55.153  43.435  0.00  0.00    -0.050 A 
HETATM   21  C   UNK N   1      32.209  55.715  44.075  0.00  0.00     0.047 A 
HETATM   22  C   UNK N   1      33.255  54.890  44.545  0.00  0.00     0.105 A 
HETATM   23  C   UNK N   1      33.114  53.515  44.361  0.00  0.00     0.138 A 
HETATM   24  O   UNK N   1      33.954  52.544  44.715  0.00  0.00    -0.320 OA
HETATM   25  C   UNK N   1      32.041  52.978  43.762  0.00  0.00     0.108 A 
HETATM   26  C   UNK N   1      33.400  51.319  44.331  0.00  0.00     0.352 A 
HETATM   27  O   UNK N   1      32.180  51.651  43.728  0.00  0.00    -0.323 OA
HETATM   28  C   UNK N   1      30.990  53.751  43.275  0.00  0.00     0.047 A 
BRANCH  22  29
HETATM   29  O   UNK N   1      34.366  55.386  45.149  0.00  0.00    -0.353 OA
HETATM   30  C   UNK N   1      34.361  56.438  46.045  0.00  0.00     0.210 C 
ENDBRANCH  22  29
ENDBRANCH  19  20
ENDBRANCH  17  19
ENDBRANCH  16  17
ENDBRANCH   1  16
TORSDOF 9
ENDMDL
MODEL 9
REMARK VINA RESULT:      -6.2     10.082     13.842
REMARK  9 active torsions:
REMARK  status: ('A' for Active; 'I' for Inactive)
REMARK    1  A    between atoms: C_2  and  C_5 
REMARK    2  A    between atoms: C_5  and  O_6 
REMARK    3  A    between atoms: C_5  and  C_8 
REMARK    4  A    between atoms: C_5  and  C_25 
REMARK    5  A    between atoms: C_8  and  O_10 
REMARK    6  A    between atoms: O_10  and  C_11 
REMARK    7  A    between atoms: C_11  and  C_12 
REMARK    8  A    between atoms: C_12  and  C_13 
REMARK    9  A    between atoms: C_15  and  O_16 
ROOT
HETATM    1  C   UNK N   1      27.937  53.404  40.757  0.00  0.00     0.308 C 
HETATM    2  O   UNK N   1      26.910  52.941  41.235  0.00  0.00    -0.261 OA
ENDROOT
BRANCH   1   3
HETATM    3  C   UNK N   1      28.682  52.663  39.643  0.00  0.00     0.273 C 
BRANCH   3   4
HETATM    4  C   UNK N   1      29.556  53.755  38.957  0.00  0.00     0.432 C 
HETATM    5  F   UNK N   1      28.858  54.931  38.764  0.00  0.00    -0.167 F 
HETATM    6  F   UNK N   1      30.021  53.318  37.726  0.00  0.00    -0.167 F 
HETATM    7  F   UNK N   1      30.647  54.055  39.759  0.00  0.00    -0.167 F 
ENDBRANCH   3   4
BRANCH   3   8
HETATM    8  O   UNK N   1      27.779  52.181  38.644  0.00  0.00    -0.363 OA
HETATM    9  C   UNK N   1      26.763  53.102  38.280  0.00  0.00     0.204 C 
ENDBRANCH   3   8
BRANCH   3  10
HETATM   10  C   UNK N   1      29.578  51.518  40.191  0.00  0.00    -0.005 A 
HETATM   11  C   UNK N   1      29.003  50.291  40.589  0.00  0.00     0.011 A 
HETATM   12  C   UNK N   1      29.800  49.253  41.082  0.00  0.00     0.001 A 
HETATM   13  C   UNK N   1      31.178  49.422  41.204  0.00  0.00     0.000 A 
HETATM   14  C   UNK N   1      31.765  50.632  40.839  0.00  0.00     0.001 A 
HETATM   15  C   UNK N   1      30.979  51.671  40.338  0.00  0.00     0.011 A 
ENDBRANCH   3  10
ENDBRANCH   1   3
BRANCH   1  16
HETATM   16  O   UNK N   1      28.394  54.624  41.161  0.00  0.00    -0.313 OA
BRANCH  16  17
HETATM   17  C   UNK N   1      28.668  54.949  42.477  0.00  0.00     0.132 C 
HETATM   18  C   UNK N   1      27.488  55.742  43.032  0.00  0.00     0.040 C 
BRANCH  17  19
HETATM   19  C   UNK N   1      29.995  55.733  42.553  0.00  0.00     0.070 C 
BRANCH  19  20
HETATM   20  C   UNK N   1      31.084  54.928  43.209  0.00  0.00    -0.050 A 
HETATM   21  C   UNK N   1      32.180  55.614  43.789  0.00  0.00     0.047 A 
HETATM   22  C   UNK N   1      33.239  54.901  44.393  0.00  0.00     0.105 A 
HETATM   23  C   UNK N   1      33.148  53.510  44.401  0.00  0.00     0.138 A 
HETATM   24  O   UNK N   1      34.010  52.628  44.907  0.00  0.00    -0.320 OA
HETATM   25  C   UNK N   1      32.110  52.856  43.861  0.00  0.00     0.108 A 
HETATM   26  C   UNK N   1      33.506  51.343  44.686  0.00  0.00     0.352 A 
HETATM   27  O   UNK N   1      32.293  51.544  44.017  0.00  0.00    -0.323 OA
HETATM   28  C   UNK N   1      31.048  53.515  43.247  0.00  0.00     0.047 A 
BRANCH  22  29
HETATM   29  O   UNK N   1      34.317  55.516  44.945  0.00  0.00    -0.353 OA
HETATM   30  C   UNK N   1      34.242  56.476  45.937  0.00  0.00     0.210 C 
ENDBRANCH  22  29
ENDBRANCH  19  20
ENDBRANCH  17  19
ENDBRANCH  16  17
ENDBRANCH   1  16
TORSDOF 9
ENDMDL
