MODEL 1
REMARK VINA RESULT:      -7.3      0.000      0.000
REMARK  4 active torsions:
REMARK  status: ('A' for Active; 'I' for Inactive)
REMARK    1  A    between atoms: C_8  and  O_10 
REMARK    2  A    between atoms: O_10  and  C_11 
REMARK    3  A    between atoms: C_11  and  C_12 
REMARK    4  A    between atoms: C_16  and  O_17 
ROOT
HETATM    1  C   UNK N   1      28.876  56.464  41.374  0.00  0.00     0.047 C 
HETATM    2  C   UNK N   1      28.258  55.275  40.522  0.00  0.00    -0.030 C 
HETATM    3  C   UNK N   1      28.954  55.238  39.087  0.00  0.00     0.005 C 
HETATM    4  C   UNK N   1      28.626  53.972  38.186  0.00  0.00    -0.017 C 
HETATM    5  C   UNK N   1      28.852  52.675  39.037  0.00  0.00     0.126 C 
HETATM    6  C   UNK N   1      28.059  52.703  40.363  0.00  0.00     0.033 C 
HETATM    7  C   UNK N   1      28.495  53.902  41.225  0.00  0.00     0.013 C 
HETATM    8  C   UNK N   1      27.202  53.967  37.568  0.00  0.00     0.018 C 
HETATM    9  C   UNK N   1      29.599  53.928  36.973  0.00  0.00     0.018 C 
HETATM   10  C   UNK N   1      28.789  56.606  38.354  0.00  0.00     0.010 C 
HETATM   11  C   UNK N   1      29.357  57.766  39.187  0.00  0.00     0.034 C 
HETATM   12  C   UNK N   1      28.753  57.745  40.568  0.00  0.00    -0.082 C 
HETATM   13  C   UNK N   1      28.111  58.817  41.060  0.00  0.00     0.015 C 
HETATM   14  C   UNK N   1      26.720  55.541  40.483  0.00  0.00     0.016 C 
ENDROOT
BRANCH   1  15
HETATM   15  C   UNK N   1      30.349  56.260  41.794  0.00  0.00     0.185 C 
BRANCH  15  16
HETATM   16  O   UNK N   1      30.443  55.875  43.118  0.00  0.00    -0.350 OA
BRANCH  16  17
HETATM   17  C   UNK N   1      31.329  54.944  43.563  0.00  0.00     0.071 A 
HETATM   18  C   UNK N   1      32.294  55.322  44.507  0.00  0.00     0.038 A 
HETATM   19  C   UNK N   1      33.222  54.388  44.986  0.00  0.00     0.017 A 
HETATM   20  C   UNK N   1      33.190  53.066  44.522  0.00  0.00    -0.002 A 
HETATM   21  C   UNK N   1      32.222  52.677  43.574  0.00  0.00     0.092 A 
HETATM   22  C   UNK N   1      34.099  52.107  44.976  0.00  0.00     0.020 A 
HETATM   23  O   UNK N   1      32.180  51.425  43.127  0.00  0.00    -0.275 OA
HETATM   24  C   UNK N   1      31.301  53.609  43.102  0.00  0.00     0.075 A 
HETATM   25  C   UNK N   1      33.033  50.491  43.541  0.00  0.00     0.288 A 
HETATM   26  O   UNK N   1      32.950  49.360  43.100  0.00  0.00    -0.260 OA
HETATM   27  C   UNK N   1      34.021  50.806  44.481  0.00  0.00     0.083 A 
ENDBRANCH  16  17
ENDBRANCH  15  16
ENDBRANCH   1  15
BRANCH   5  28
HETATM   28  O   UNK N   1      30.222  52.526  39.326  0.00  0.00    -0.395 OA
HETATM   29  H   UNK N   1      30.554  51.762  38.783  0.00  0.00     0.210 HD
ENDBRANCH   5  28
TORSDOF 4
ENDMDL
MODEL 2
REMARK VINA RESULT:      -7.0      1.575      3.439
REMARK  4 active torsions:
REMARK  status: ('A' for Active; 'I' for Inactive)
REMARK    1  A    between atoms: C_8  and  O_10 
REMARK    2  A    between atoms: O_10  and  C_11 
REMARK    3  A    between atoms: C_11  and  C_12 
REMARK    4  A    between atoms: C_16  and  O_17 
ROOT
HETATM    1  C   UNK N   1      29.778  56.427  41.386  0.00  0.00     0.047 C 
HETATM    2  C   UNK N   1      28.504  57.281  40.978  0.00  0.00    -0.030 C 
HETATM    3  C   UNK N   1      27.259  56.306  40.770  0.00  0.00     0.005 C 
HETATM    4  C   UNK N   1      25.847  57.008  40.585  0.00  0.00    -0.017 C 
HETATM    5  C   UNK N   1      25.650  58.056  41.734  0.00  0.00     0.126 C 
HETATM    6  C   UNK N   1      26.825  59.058  41.815  0.00  0.00     0.033 C 
HETATM    7  C   UNK N   1      28.146  58.316  42.089  0.00  0.00     0.013 C 
HETATM    8  C   UNK N   1      25.633  57.681  39.202  0.00  0.00     0.018 C 
HETATM    9  C   UNK N   1      24.716  55.947  40.703  0.00  0.00     0.018 C 
HETATM   10  C   UNK N   1      27.579  55.217  39.698  0.00  0.00     0.010 C 
HETATM   11  C   UNK N   1      28.830  54.406  40.072  0.00  0.00     0.034 C 
HETATM   12  C   UNK N   1      29.981  55.340  40.344  0.00  0.00    -0.082 C 
HETATM   13  C   UNK N   1      31.139  55.228  39.673  0.00  0.00     0.015 C 
HETATM   14  C   UNK N   1      28.921  58.070  39.696  0.00  0.00     0.016 C 
ENDROOT
BRANCH   1  15
HETATM   15  C   UNK N   1      29.702  55.785  42.789  0.00  0.00     0.185 C 
BRANCH  15  16
HETATM   16  O   UNK N   1      30.914  55.877  43.448  0.00  0.00    -0.350 OA
BRANCH  16  17
HETATM   17  C   UNK N   1      31.687  54.797  43.743  0.00  0.00     0.071 A 
HETATM   18  C   UNK N   1      32.771  54.956  44.619  0.00  0.00     0.038 A 
HETATM   19  C   UNK N   1      33.586  53.865  44.944  0.00  0.00     0.017 A 
HETATM   20  C   UNK N   1      33.322  52.603  44.394  0.00  0.00    -0.002 A 
HETATM   21  C   UNK N   1      32.234  52.434  43.514  0.00  0.00     0.092 A 
HETATM   22  C   UNK N   1      34.114  51.492  44.695  0.00  0.00     0.020 A 
HETATM   23  O   UNK N   1      31.972  51.241  42.986  0.00  0.00    -0.275 OA
HETATM   24  C   UNK N   1      31.426  53.521  43.194  0.00  0.00     0.075 A 
HETATM   25  C   UNK N   1      32.709  50.166  43.254  0.00  0.00     0.288 A 
HETATM   26  O   UNK N   1      32.425  49.098  42.744  0.00  0.00    -0.260 OA
HETATM   27  C   UNK N   1      33.806  50.260  44.118  0.00  0.00     0.083 A 
ENDBRANCH  16  17
ENDBRANCH  15  16
ENDBRANCH   1  15
BRANCH   5  28
HETATM   28  O   UNK N   1      25.527  57.393  42.970  0.00  0.00    -0.395 OA
HETATM   29  H   UNK N   1      25.494  58.093  43.675  0.00  0.00     0.210 HD
ENDBRANCH   5  28
TORSDOF 4
ENDMDL
MODEL 3
REMARK VINA RESULT:      -6.9     10.079     14.735
REMARK  4 active torsions:
REMARK  status: ('A' for Active; 'I' for Inactive)
REMARK    1  A    between atoms: C_8  and  O_10 
REMARK    2  A    between atoms: O_10  and  C_11 
REMARK    3  A    between atoms: C_11  and  C_12 
REMARK    4  A    between atoms: C_16  and  O_17 
ROOT
HETATM    1  C   UNK N   1      41.440  47.511  47.134  0.00  0.00     0.047 C 
HETATM    2  C   UNK N   1      41.100  45.982  47.391  0.00  0.00    -0.030 C 
HETATM    3  C   UNK N   1      41.101  45.697  48.960  0.00  0.00     0.005 C 
HETATM    4  C   UNK N   1      40.555  44.276  49.411  0.00  0.00    -0.017 C 
HETATM    5  C   UNK N   1      39.171  44.025  48.719  0.00  0.00     0.126 C 
HETATM    6  C   UNK N   1      39.249  44.190  47.185  0.00  0.00     0.033 C 
HETATM    7  C   UNK N   1      39.694  45.619  46.820  0.00  0.00     0.013 C 
HETATM    8  C   UNK N   1      41.519  43.092  49.130  0.00  0.00     0.018 C 
HETATM    9  C   UNK N   1      40.332  44.266  50.951  0.00  0.00     0.018 C 
HETATM   10  C   UNK N   1      42.473  46.088  49.595  0.00  0.00     0.010 C 
HETATM   11  C   UNK N   1      42.823  47.560  49.324  0.00  0.00     0.034 C 
HETATM   12  C   UNK N   1      42.741  47.839  47.845  0.00  0.00    -0.082 C 
HETATM   13  C   UNK N   1      43.791  48.342  47.176  0.00  0.00     0.015 C 
HETATM   14  C   UNK N   1      42.171  45.174  46.591  0.00  0.00     0.016 C 
ENDROOT
BRANCH   1  15
HETATM   15  C   UNK N   1      40.343  48.501  47.588  0.00  0.00     0.185 C 
BRANCH  15  16
HETATM   16  O   UNK N   1      39.236  48.433  46.764  0.00  0.00    -0.350 OA
BRANCH  16  17
HETATM   17  C   UNK N   1      39.174  49.033  45.545  0.00  0.00     0.071 A 
HETATM   18  C   UNK N   1      38.581  48.343  44.478  0.00  0.00     0.038 A 
HETATM   19  C   UNK N   1      38.501  48.932  43.209  0.00  0.00     0.017 A 
HETATM   20  C   UNK N   1      39.017  50.218  43.000  0.00  0.00    -0.002 A 
HETATM   21  C   UNK N   1      39.613  50.919  44.067  0.00  0.00     0.092 A 
HETATM   22  C   UNK N   1      38.956  50.837  41.748  0.00  0.00     0.020 A 
HETATM   23  O   UNK N   1      40.104  52.141  43.881  0.00  0.00    -0.275 OA
HETATM   24  C   UNK N   1      39.689  50.330  45.326  0.00  0.00     0.075 A 
HETATM   25  C   UNK N   1      40.060  52.756  42.701  0.00  0.00     0.288 A 
HETATM   26  O   UNK N   1      40.525  53.874  42.587  0.00  0.00    -0.260 OA
HETATM   27  C   UNK N   1      39.484  52.118  41.596  0.00  0.00     0.083 A 
ENDBRANCH  16  17
ENDBRANCH  15  16
ENDBRANCH   1  15
BRANCH   5  28
HETATM   28  O   UNK N   1      38.212  44.921  49.229  0.00  0.00    -0.395 OA
HETATM   29  H   UNK N   1      37.344  44.438  49.252  0.00  0.00     0.210 HD
ENDBRANCH   5  28
TORSDOF 4
ENDMDL
MODEL 4
REMARK VINA RESULT:      -6.8      1.479      2.163
REMARK  4 active torsions:
REMARK  status: ('A' for Active; 'I' for Inactive)
REMARK    1  A    between atoms: C_8  and  O_10 
REMARK    2  A    between atoms: O_10  and  C_11 
REMARK    3  A    between atoms: C_11  and  C_12 
REMARK    4  A    between atoms: C_16  and  O_17 
ROOT
HETATM    1  C   UNK N   1      28.660  55.744  40.724  0.00  0.00     0.047 C 
HETATM    2  C   UNK N   1      27.477  55.301  39.761  0.00  0.00    -0.030 C 
HETATM    3  C   UNK N   1      27.818  53.877  39.128  0.00  0.00     0.005 C 
HETATM    4  C   UNK N   1      26.644  53.175  38.321  0.00  0.00    -0.017 C 
HETATM    5  C   UNK N   1      25.349  53.186  39.204  0.00  0.00     0.126 C 
HETATM    6  C   UNK N   1      24.989  54.607  39.692  0.00  0.00     0.033 C 
HETATM    7  C   UNK N   1      26.132  55.189  40.544  0.00  0.00     0.013 C 
HETATM    8  C   UNK N   1      26.351  53.797  36.929  0.00  0.00     0.018 C 
HETATM    9  C   UNK N   1      27.021  51.693  38.037  0.00  0.00     0.018 C 
HETATM   10  C   UNK N   1      29.182  53.919  38.369  0.00  0.00     0.010 C 
HETATM   11  C   UNK N   1      30.326  54.376  39.288  0.00  0.00     0.034 C 
HETATM   12  C   UNK N   1      29.962  55.684  39.944  0.00  0.00    -0.082 C 
HETATM   13  C   UNK N   1      30.751  56.763  39.825  0.00  0.00     0.015 C 
HETATM   14  C   UNK N   1      27.335  56.452  38.715  0.00  0.00     0.016 C 
ENDROOT
BRANCH   1  15
HETATM   15  C   UNK N   1      28.793  54.901  42.012  0.00  0.00     0.185 C 
BRANCH  15  16
HETATM   16  O   UNK N   1      29.753  55.428  42.857  0.00  0.00    -0.350 OA
BRANCH  16  17
HETATM   17  C   UNK N   1      30.764  54.690  43.390  0.00  0.00     0.071 A 
HETATM   18  C   UNK N   1      31.567  55.259  44.388  0.00  0.00     0.038 A 
HETATM   19  C   UNK N   1      32.616  54.527  44.958  0.00  0.00     0.017 A 
HETATM   20  C   UNK N   1      32.870  53.216  44.530  0.00  0.00    -0.002 A 
HETATM   21  C   UNK N   1      32.067  52.636  43.528  0.00  0.00     0.092 A 
HETATM   22  C   UNK N   1      33.908  52.456  45.075  0.00  0.00     0.020 A 
HETATM   23  O   UNK N   1      32.297  51.393  43.115  0.00  0.00    -0.275 OA
HETATM   24  C   UNK N   1      31.025  53.368  42.965  0.00  0.00     0.075 A 
HETATM   25  C   UNK N   1      33.278  50.645  43.615  0.00  0.00     0.288 A 
HETATM   26  O   UNK N   1      33.445  49.514  43.200  0.00  0.00    -0.260 OA
HETATM   27  C   UNK N   1      34.116  51.158  44.612  0.00  0.00     0.083 A 
ENDBRANCH  16  17
ENDBRANCH  15  16
ENDBRANCH   1  15
BRANCH   5  28
HETATM   28  O   UNK N   1      25.525  52.349  40.322  0.00  0.00    -0.395 OA
HETATM   29  H   UNK N   1      25.507  52.930  41.128  0.00  0.00     0.210 HD
ENDBRANCH   5  28
TORSDOF 4
ENDMDL
MODEL 5
REMARK VINA RESULT:      -6.6      1.472      3.598
REMARK  4 active torsions:
REMARK  status: ('A' for Active; 'I' for Inactive)
REMARK    1  A    between atoms: C_8  and  O_10 
REMARK    2  A    between atoms: O_10  and  C_11 
REMARK    3  A    between atoms: C_11  and  C_12 
REMARK    4  A    between atoms: C_16  and  O_17 
ROOT
HETATM    1  C   UNK N   1      29.301  55.261  41.225  0.00  0.00     0.047 C 
HETATM    2  C   UNK N   1      28.341  56.368  40.614  0.00  0.00    -0.030 C 
HETATM    3  C   UNK N   1      26.823  55.958  40.885  0.00  0.00     0.005 C 
HETATM    4  C   UNK N   1      25.733  57.062  40.547  0.00  0.00    -0.017 C 
HETATM    5  C   UNK N   1      26.157  58.413  41.218  0.00  0.00     0.126 C 
HETATM    6  C   UNK N   1      27.592  58.832  40.826  0.00  0.00     0.033 C 
HETATM    7  C   UNK N   1      28.605  57.759  41.267  0.00  0.00     0.013 C 
HETATM    8  C   UNK N   1      25.472  57.273  39.031  0.00  0.00     0.018 C 
HETATM    9  C   UNK N   1      24.360  56.639  41.143  0.00  0.00     0.018 C 
HETATM   10  C   UNK N   1      26.514  54.548  40.292  0.00  0.00     0.010 C 
HETATM   11  C   UNK N   1      27.460  53.476  40.857  0.00  0.00     0.034 C 
HETATM   12  C   UNK N   1      28.891  53.909  40.667  0.00  0.00    -0.082 C 
HETATM   13  C   UNK N   1      29.769  53.134  40.009  0.00  0.00     0.015 C 
HETATM   14  C   UNK N   1      28.719  56.462  39.101  0.00  0.00     0.016 C 
ENDROOT
BRANCH   1  15
HETATM   15  C   UNK N   1      29.311  55.197  42.769  0.00  0.00     0.185 C 
BRANCH  15  16
HETATM   16  O   UNK N   1      30.553  55.535  43.275  0.00  0.00    -0.350 OA
BRANCH  16  17
HETATM   17  C   UNK N   1      31.462  54.616  43.697  0.00  0.00     0.071 A 
HETATM   18  C   UNK N   1      32.456  55.010  44.604  0.00  0.00     0.038 A 
HETATM   19  C   UNK N   1      33.407  54.088  45.059  0.00  0.00     0.017 A 
HETATM   20  C   UNK N   1      33.371  52.762  44.607  0.00  0.00    -0.002 A 
HETATM   21  C   UNK N   1      32.375  52.357  43.696  0.00  0.00     0.092 A 
HETATM   22  C   UNK N   1      34.304  51.815  45.037  0.00  0.00     0.020 A 
HETATM   23  O   UNK N   1      32.329  51.101  43.261  0.00  0.00    -0.275 OA
HETATM   24  C   UNK N   1      31.431  53.277  43.248  0.00  0.00     0.075 A 
HETATM   25  C   UNK N   1      33.204  50.178  43.653  0.00  0.00     0.288 A 
HETATM   26  O   UNK N   1      33.116  49.043  43.224  0.00  0.00    -0.260 OA
HETATM   27  C   UNK N   1      34.221  50.510  44.555  0.00  0.00     0.083 A 
ENDBRANCH  16  17
ENDBRANCH  15  16
ENDBRANCH   1  15
BRANCH   5  28
HETATM   28  O   UNK N   1      26.082  58.296  42.619  0.00  0.00    -0.395 OA
HETATM   29  H   UNK N   1      26.502  57.429  42.863  0.00  0.00     0.210 HD
ENDBRANCH   5  28
TORSDOF 4
ENDMDL
MODEL 6
REMARK VINA RESULT:      -6.4      1.632      4.332
REMARK  4 active torsions:
REMARK  status: ('A' for Active; 'I' for Inactive)
REMARK    1  A    between atoms: C_8  and  O_10 
REMARK    2  A    between atoms: O_10  and  C_11 
REMARK    3  A    between atoms: C_11  and  C_12 
REMARK    4  A    between atoms: C_16  and  O_17 
ROOT
HETATM    1  C   UNK N   1      28.659  53.705  38.219  0.00  0.00     0.047 C 
HETATM    2  C   UNK N   1      28.048  55.004  38.895  0.00  0.00    -0.030 C 
HETATM    3  C   UNK N   1      27.619  54.666  40.394  0.00  0.00     0.005 C 
HETATM    4  C   UNK N   1      27.201  55.905  41.296  0.00  0.00    -0.017 C 
HETATM    5  C   UNK N   1      28.310  57.007  41.184  0.00  0.00     0.126 C 
HETATM    6  C   UNK N   1      28.603  57.391  39.716  0.00  0.00     0.033 C 
HETATM    7  C   UNK N   1      29.092  56.163  38.926  0.00  0.00     0.013 C 
HETATM    8  C   UNK N   1      25.809  56.508  40.965  0.00  0.00     0.018 C 
HETATM    9  C   UNK N   1      27.112  55.461  42.784  0.00  0.00     0.018 C 
HETATM   10  C   UNK N   1      26.606  53.478  40.428  0.00  0.00     0.010 C 
HETATM   11  C   UNK N   1      27.181  52.226  39.747  0.00  0.00     0.034 C 
HETATM   12  C   UNK N   1      27.656  52.573  38.359  0.00  0.00    -0.082 C 
HETATM   13  C   UNK N   1      27.193  51.917  37.283  0.00  0.00     0.015 C 
HETATM   14  C   UNK N   1      26.865  55.441  37.973  0.00  0.00     0.016 C 
ENDROOT
BRANCH   1  15
HETATM   15  C   UNK N   1      30.022  53.258  38.794  0.00  0.00     0.185 C 
BRANCH  15  16
HETATM   16  O   UNK N   1      29.861  52.287  39.764  0.00  0.00    -0.350 OA
BRANCH  16  17
HETATM   17  C   UNK N   1      30.646  52.200  40.871  0.00  0.00     0.071 A 
HETATM   18  C   UNK N   1      31.313  50.996  41.138  0.00  0.00     0.038 A 
HETATM   19  C   UNK N   1      32.130  50.873  42.269  0.00  0.00     0.017 A 
HETATM   20  C   UNK N   1      32.283  51.957  43.145  0.00  0.00    -0.002 A 
HETATM   21  C   UNK N   1      31.617  53.171  42.884  0.00  0.00     0.092 A 
HETATM   22  C   UNK N   1      33.088  51.870  44.284  0.00  0.00     0.020 A 
HETATM   23  O   UNK N   1      31.756  54.207  43.706  0.00  0.00    -0.275 OA
HETATM   24  C   UNK N   1      30.808  53.288  41.757  0.00  0.00     0.075 A 
HETATM   25  C   UNK N   1      32.515  54.154  44.798  0.00  0.00     0.288 A 
HETATM   26  O   UNK N   1      32.607  55.132  45.516  0.00  0.00    -0.260 OA
HETATM   27  C   UNK N   1      33.205  52.980  45.120  0.00  0.00     0.083 A 
ENDBRANCH  16  17
ENDBRANCH  15  16
ENDBRANCH   1  15
BRANCH   5  28
HETATM   28  O   UNK N   1      29.499  56.551  41.784  0.00  0.00    -0.395 OA
HETATM   29  H   UNK N   1      29.400  55.572  41.924  0.00  0.00     0.210 HD
ENDBRANCH   5  28
TORSDOF 4
ENDMDL
MODEL 7
REMARK VINA RESULT:      -6.3     16.092     18.830
REMARK  4 active torsions:
REMARK  status: ('A' for Active; 'I' for Inactive)
REMARK    1  A    between atoms: C_8  and  O_10 
REMARK    2  A    between atoms: O_10  and  C_11 
REMARK    3  A    between atoms: C_11  and  C_12 
REMARK    4  A    between atoms: C_16  and  O_17 
ROOT
HETATM    1  C   UNK N   1      28.464  42.451  54.413  0.00  0.00     0.047 C 
HETATM    2  C   UNK N   1      27.607  42.546  53.080  0.00  0.00    -0.030 C 
HETATM    3  C   UNK N   1      26.713  41.233  52.932  0.00  0.00     0.005 C 
HETATM    4  C   UNK N   1      25.622  41.259  51.778  0.00  0.00    -0.017 C 
HETATM    5  C   UNK N   1      24.793  42.584  51.898  0.00  0.00     0.126 C 
HETATM    6  C   UNK N   1      25.697  43.837  51.912  0.00  0.00     0.033 C 
HETATM    7  C   UNK N   1      26.664  43.789  53.109  0.00  0.00     0.013 C 
HETATM    8  C   UNK N   1      26.193  41.111  50.342  0.00  0.00     0.018 C 
HETATM    9  C   UNK N   1      24.645  40.062  51.957  0.00  0.00     0.018 C 
HETATM   10  C   UNK N   1      27.603  39.951  52.944  0.00  0.00     0.010 C 
HETATM   11  C   UNK N   1      28.459  39.868  54.218  0.00  0.00     0.034 C 
HETATM   12  C   UNK N   1      29.240  41.145  54.392  0.00  0.00    -0.082 C 
HETATM   13  C   UNK N   1      30.578  41.130  54.504  0.00  0.00     0.015 C 
HETATM   14  C   UNK N   1      28.643  42.750  51.929  0.00  0.00     0.016 C 
ENDROOT
BRANCH   1  15
HETATM   15  C   UNK N   1      27.640  42.538  55.717  0.00  0.00     0.185 C 
BRANCH  15  16
HETATM   16  O   UNK N   1      28.270  43.334  56.655  0.00  0.00    -0.350 OA
BRANCH  16  17
HETATM   17  C   UNK N   1      29.258  42.883  57.474  0.00  0.00     0.071 A 
HETATM   18  C   UNK N   1      28.962  41.879  58.407  0.00  0.00     0.038 A 
HETATM   19  C   UNK N   1      29.956  41.393  59.265  0.00  0.00     0.017 A 
HETATM   20  C   UNK N   1      31.257  41.910  59.197  0.00  0.00    -0.002 A 
HETATM   21  C   UNK N   1      31.564  42.919  58.261  0.00  0.00     0.092 A 
HETATM   22  C   UNK N   1      32.273  41.451  60.038  0.00  0.00     0.020 A 
HETATM   23  O   UNK N   1      32.794  43.417  58.186  0.00  0.00    -0.275 OA
HETATM   24  C   UNK N   1      30.572  43.398  57.409  0.00  0.00     0.075 A 
HETATM   25  C   UNK N   1      33.783  42.999  58.973  0.00  0.00     0.288 A 
HETATM   26  O   UNK N   1      34.891  43.489  58.862  0.00  0.00    -0.260 OA
HETATM   27  C   UNK N   1      33.550  42.001  59.926  0.00  0.00     0.083 A 
ENDBRANCH  16  17
ENDBRANCH  15  16
ENDBRANCH   1  15
BRANCH   5  28
HETATM   28  O   UNK N   1      24.023  42.561  53.077  0.00  0.00    -0.395 OA
HETATM   29  H   UNK N   1      24.608  42.214  53.801  0.00  0.00     0.210 HD
ENDBRANCH   5  28
TORSDOF 4
ENDMDL
MODEL 8
REMARK VINA RESULT:      -6.1      9.171     14.583
REMARK  4 active torsions:
REMARK  status: ('A' for Active; 'I' for Inactive)
REMARK    1  A    between atoms: C_8  and  O_10 
REMARK    2  A    between atoms: O_10  and  C_11 
REMARK    3  A    between atoms: C_11  and  C_12 
REMARK    4  A    between atoms: C_16  and  O_17 
ROOT
HETATM    1  C   UNK N   1      41.671  47.434  47.044  0.00  0.00     0.047 C 
HETATM    2  C   UNK N   1      41.231  45.947  47.382  0.00  0.00    -0.030 C 
HETATM    3  C   UNK N   1      41.150  45.767  48.965  0.00  0.00     0.005 C 
HETATM    4  C   UNK N   1      40.503  44.412  49.480  0.00  0.00    -0.017 C 
HETATM    5  C   UNK N   1      39.136  44.193  48.744  0.00  0.00     0.126 C 
HETATM    6  C   UNK N   1      39.287  44.252  47.207  0.00  0.00     0.033 C 
HETATM    7  C   UNK N   1      39.831  45.626  46.772  0.00  0.00     0.013 C 
HETATM    8  C   UNK N   1      41.406  43.159  49.319  0.00  0.00     0.018 C 
HETATM    9  C   UNK N   1      40.216  44.517  51.005  0.00  0.00     0.018 C 
HETATM   10  C   UNK N   1      42.515  46.122  49.635  0.00  0.00     0.010 C 
HETATM   11  C   UNK N   1      42.962  47.550  49.286  0.00  0.00     0.034 C 
HETATM   12  C   UNK N   1      42.959  47.735  47.790  0.00  0.00    -0.082 C 
HETATM   13  C   UNK N   1      44.063  48.132  47.138  0.00  0.00     0.015 C 
HETATM   14  C   UNK N   1      42.285  45.029  46.685  0.00  0.00     0.016 C 
ENDROOT
BRANCH   1  15
HETATM   15  C   UNK N   1      40.617  48.512  47.383  0.00  0.00     0.185 C 
BRANCH  15  16
HETATM   16  O   UNK N   1      40.693  49.579  46.507  0.00  0.00    -0.350 OA
BRANCH  16  17
HETATM   17  C   UNK N   1      39.979  49.648  45.352  0.00  0.00     0.071 A 
HETATM   18  C   UNK N   1      40.292  50.647  44.419  0.00  0.00     0.038 A 
HETATM   19  C   UNK N   1      39.576  50.747  43.219  0.00  0.00     0.017 A 
HETATM   20  C   UNK N   1      38.538  49.846  42.945  0.00  0.00    -0.002 A 
HETATM   21  C   UNK N   1      38.217  48.838  43.876  0.00  0.00     0.092 A 
HETATM   22  C   UNK N   1      37.802  49.915  41.759  0.00  0.00     0.020 A 
HETATM   23  O   UNK N   1      37.236  47.976  43.626  0.00  0.00    -0.275 OA
HETATM   24  C   UNK N   1      38.933  48.742  45.067  0.00  0.00     0.075 A 
HETATM   25  C   UNK N   1      36.518  48.017  42.507  0.00  0.00     0.288 A 
HETATM   26  O   UNK N   1      35.631  47.204  42.329  0.00  0.00    -0.260 OA
HETATM   27  C   UNK N   1      36.780  48.993  41.538  0.00  0.00     0.083 A 
ENDBRANCH  16  17
ENDBRANCH  15  16
ENDBRANCH   1  15
BRANCH   5  28
HETATM   28  O   UNK N   1      38.212  45.174  49.151  0.00  0.00    -0.395 OA
HETATM   29  H   UNK N   1      38.559  45.572  49.992  0.00  0.00     0.210 HD
ENDBRANCH   5  28
TORSDOF 4
ENDMDL
MODEL 9
REMARK VINA RESULT:      -6.1     18.414     22.345
REMARK  4 active torsions:
REMARK  status: ('A' for Active; 'I' for Inactive)
REMARK    1  A    between atoms: C_8  and  O_10 
REMARK    2  A    between atoms: O_10  and  C_11 
REMARK    3  A    between atoms: C_11  and  C_12 
REMARK    4  A    between atoms: C_16  and  O_17 
ROOT
HETATM    1  C   UNK N   1      31.658  43.151  61.464  0.00  0.00     0.047 C 
HETATM    2  C   UNK N   1      30.816  43.294  60.126  0.00  0.00    -0.030 C 
HETATM    3  C   UNK N   1      30.870  44.809  59.628  0.00  0.00     0.005 C 
HETATM    4  C   UNK N   1      30.276  45.089  58.182  0.00  0.00    -0.017 C 
HETATM    5  C   UNK N   1      30.900  44.064  57.174  0.00  0.00     0.126 C 
HETATM    6  C   UNK N   1      30.712  42.602  57.638  0.00  0.00     0.033 C 
HETATM    7  C   UNK N   1      31.393  42.380  59.002  0.00  0.00     0.013 C 
HETATM    8  C   UNK N   1      28.726  45.049  58.099  0.00  0.00     0.018 C 
HETATM    9  C   UNK N   1      30.674  46.520  57.722  0.00  0.00     0.018 C 
HETATM   10  C   UNK N   1      30.346  45.777  60.735  0.00  0.00     0.010 C 
HETATM   11  C   UNK N   1      31.138  45.621  62.044  0.00  0.00     0.034 C 
HETATM   12  C   UNK N   1      31.148  44.174  62.464  0.00  0.00    -0.082 C 
HETATM   13  C   UNK N   1      30.702  43.800  63.674  0.00  0.00     0.015 C 
HETATM   14  C   UNK N   1      29.381  42.785  60.477  0.00  0.00     0.016 C 
ENDROOT
BRANCH   1  15
HETATM   15  C   UNK N   1      33.184  43.322  61.288  0.00  0.00     0.185 C 
BRANCH  15  16
HETATM   16  O   UNK N   1      33.792  43.651  62.484  0.00  0.00    -0.350 OA
BRANCH  16  17
HETATM   17  C   UNK N   1      34.845  44.507  62.576  0.00  0.00     0.071 A 
HETATM   18  C   UNK N   1      35.977  44.279  61.780  0.00  0.00     0.038 A 
HETATM   19  C   UNK N   1      37.078  45.141  61.850  0.00  0.00     0.017 A 
HETATM   20  C   UNK N   1      37.055  46.240  62.720  0.00  0.00    -0.002 A 
HETATM   21  C   UNK N   1      35.921  46.477  63.523  0.00  0.00     0.092 A 
HETATM   22  C   UNK N   1      38.136  47.120  62.817  0.00  0.00     0.020 A 
HETATM   23  O   UNK N   1      35.887  47.517  64.351  0.00  0.00    -0.275 OA
HETATM   24  C   UNK N   1      34.828  45.618  63.449  0.00  0.00     0.075 A 
HETATM   25  C   UNK N   1      36.900  48.372  64.465  0.00  0.00     0.288 A 
HETATM   26  O   UNK N   1      36.816  49.307  65.239  0.00  0.00    -0.260 OA
HETATM   27  C   UNK N   1      38.059  48.197  63.700  0.00  0.00     0.083 A 
ENDBRANCH  16  17
ENDBRANCH  15  16
ENDBRANCH   1  15
BRANCH   5  28
HETATM   28  O   UNK N   1      32.275  44.322  57.019  0.00  0.00    -0.395 OA
HETATM   29  H   UNK N   1      32.716  43.453  56.825  0.00  0.00     0.210 HD
ENDBRANCH   5  28
TORSDOF 4
ENDMDL
