MODEL 1
REMARK VINA RESULT:      -6.8      0.000      0.000
REMARK  1 active torsions:
REMARK  status: ('A' for Active; 'I' for Inactive)
REMARK    1  A    between atoms: C_14  and  O_15 
ROOT
HETATM    1  O   UNK N   1      38.114  49.308  42.630  0.00  0.00    -0.260 OA
HETATM    2  C   UNK N   1      38.605  48.948  43.686  0.00  0.00     0.290 A 
HETATM    3  O   UNK N   1      38.250  47.819  44.330  0.00  0.00    -0.307 OA
HETATM    4  C   UNK N   1      38.966  47.704  45.515  0.00  0.00     0.166 A 
HETATM    5  C   UNK N   1      39.915  48.867  45.456  0.00  0.00    -0.017 A 
HETATM    6  C   UNK N   1      39.661  49.622  44.395  0.00  0.00     0.022 A 
HETATM    7  C   UNK N   1      40.357  50.880  43.957  0.00  0.00     0.055 C 
HETATM    8  C   UNK N   1      40.968  49.007  46.468  0.00  0.00     0.013 C 
HETATM    9  C   UNK N   1      41.331  47.916  47.184  0.00  0.00    -0.074 C 
HETATM   10  C   UNK N   1      42.372  48.057  48.262  0.00  0.00     0.035 C 
HETATM   11  C   UNK N   1      42.590  46.732  49.005  0.00  0.00     0.010 C 
HETATM   12  C   UNK N   1      41.234  46.137  49.494  0.00  0.00     0.005 C 
HETATM   13  C   UNK N   1      41.447  44.915  50.504  0.00  0.00    -0.017 C 
HETATM   14  C   UNK N   1      40.101  44.159  50.666  0.00  0.00     0.126 C 
HETATM   15  C   UNK N   1      39.550  43.593  49.337  0.00  0.00     0.033 C 
HETATM   16  C   UNK N   1      39.964  44.382  48.081  0.00  0.00     0.012 C 
HETATM   17  C   UNK N   1      40.176  45.904  48.294  0.00  0.00    -0.032 C 
HETATM   18  C   UNK N   1      40.729  46.518  46.936  0.00  0.00     0.026 C 
HETATM   19  C   UNK N   1      39.815  46.446  45.652  0.00  0.00     0.047 C 
HETATM   20  C   UNK N   1      38.817  46.554  48.663  0.00  0.00     0.016 C 
HETATM   21  C   UNK N   1      42.573  43.933  50.071  0.00  0.00     0.018 C 
HETATM   22  C   UNK N   1      41.856  45.473  51.896  0.00  0.00     0.018 C 
ENDROOT
BRANCH  14  23
HETATM   23  O   UNK N   1      40.199  43.128  51.620  0.00  0.00    -0.395 OA
HETATM   24  H   UNK N   1      40.459  43.546  52.481  0.00  0.00     0.210 HD
ENDBRANCH  14  23
TORSDOF 1
ENDMDL
MODEL 2
REMARK VINA RESULT:      -6.3     11.074     15.747
REMARK  1 active torsions:
REMARK  status: ('A' for Active; 'I' for Inactive)
REMARK    1  A    between atoms: C_14  and  O_15 
ROOT
HETATM    1  O   UNK N   1      33.855  55.179  45.693  0.00  0.00    -0.260 OA
HETATM    2  C   UNK N   1      33.015  54.858  44.870  0.00  0.00     0.290 A 
HETATM    3  O   UNK N   1      32.137  55.720  44.321  0.00  0.00    -0.307 OA
HETATM    4  C   UNK N   1      31.295  55.046  43.445  0.00  0.00     0.166 A 
HETATM    5  C   UNK N   1      31.859  53.654  43.431  0.00  0.00    -0.017 A 
HETATM    6  C   UNK N   1      32.845  53.542  44.311  0.00  0.00     0.022 A 
HETATM    7  C   UNK N   1      33.677  52.332  44.631  0.00  0.00     0.055 C 
HETATM    8  C   UNK N   1      31.336  52.660  42.487  0.00  0.00     0.013 C 
HETATM    9  C   UNK N   1      30.661  53.092  41.395  0.00  0.00    -0.074 C 
HETATM   10  C   UNK N   1      30.074  52.082  40.446  0.00  0.00     0.035 C 
HETATM   11  C   UNK N   1      29.288  52.766  39.318  0.00  0.00     0.010 C 
HETATM   12  C   UNK N   1      28.258  53.784  39.893  0.00  0.00     0.005 C 
HETATM   13  C   UNK N   1      27.239  54.302  38.774  0.00  0.00    -0.017 C 
HETATM   14  C   UNK N   1      26.490  55.548  39.316  0.00  0.00     0.126 C 
HETATM   15  C   UNK N   1      27.431  56.717  39.686  0.00  0.00     0.033 C 
HETATM   16  C   UNK N   1      28.847  56.292  40.117  0.00  0.00     0.012 C 
HETATM   17  C   UNK N   1      28.939  54.916  40.826  0.00  0.00    -0.032 C 
HETATM   18  C   UNK N   1      30.475  54.588  41.067  0.00  0.00     0.026 C 
HETATM   19  C   UNK N   1      31.309  55.545  42.005  0.00  0.00     0.047 C 
HETATM   20  C   UNK N   1      28.188  54.996  42.180  0.00  0.00     0.016 C 
HETATM   21  C   UNK N   1      27.918  54.624  37.411  0.00  0.00     0.018 C 
HETATM   22  C   UNK N   1      26.187  53.192  38.494  0.00  0.00     0.018 C 
ENDROOT
BRANCH  14  23
HETATM   23  O   UNK N   1      25.508  55.995  38.411  0.00  0.00    -0.395 OA
HETATM   24  H   UNK N   1      25.857  55.837  37.495  0.00  0.00     0.210 HD
ENDBRANCH  14  23
TORSDOF 1
ENDMDL
MODEL 3
REMARK VINA RESULT:      -6.2     10.871     15.780
REMARK  1 active torsions:
REMARK  status: ('A' for Active; 'I' for Inactive)
REMARK    1  A    between atoms: C_14  and  O_15 
ROOT
HETATM    1  O   UNK N   1      31.973  48.699  42.194  0.00  0.00    -0.260 OA
HETATM    2  C   UNK N   1      31.731  49.865  41.940  0.00  0.00     0.290 A 
HETATM    3  O   UNK N   1      31.171  50.281  40.786  0.00  0.00    -0.307 OA
HETATM    4  C   UNK N   1      31.052  51.665  40.788  0.00  0.00     0.166 A 
HETATM    5  C   UNK N   1      31.504  52.046  42.169  0.00  0.00    -0.017 A 
HETATM    6  C   UNK N   1      31.947  50.981  42.824  0.00  0.00     0.022 A 
HETATM    7  C   UNK N   1      32.497  50.907  44.221  0.00  0.00     0.055 C 
HETATM    8  C   UNK N   1      31.373  53.434  42.627  0.00  0.00     0.013 C 
HETATM    9  C   UNK N   1      30.503  54.250  41.986  0.00  0.00    -0.074 C 
HETATM   10  C   UNK N   1      30.397  55.690  42.412  0.00  0.00     0.035 C 
HETATM   11  C   UNK N   1      29.417  56.465  41.521  0.00  0.00     0.010 C 
HETATM   12  C   UNK N   1      29.754  56.264  40.012  0.00  0.00     0.005 C 
HETATM   13  C   UNK N   1      28.936  57.270  39.076  0.00  0.00    -0.017 C 
HETATM   14  C   UNK N   1      29.046  56.787  37.605  0.00  0.00     0.126 C 
HETATM   15  C   UNK N   1      28.487  55.364  37.383  0.00  0.00     0.033 C 
HETATM   16  C   UNK N   1      28.565  54.442  38.615  0.00  0.00     0.012 C 
HETATM   17  C   UNK N   1      29.759  54.709  39.567  0.00  0.00    -0.032 C 
HETATM   18  C   UNK N   1      29.596  53.766  40.836  0.00  0.00     0.026 C 
HETATM   19  C   UNK N   1      29.636  52.204  40.621  0.00  0.00     0.047 C 
HETATM   20  C   UNK N   1      31.080  54.384  38.823  0.00  0.00     0.016 C 
HETATM   21  C   UNK N   1      27.445  57.434  39.485  0.00  0.00     0.018 C 
HETATM   22  C   UNK N   1      29.579  58.683  39.168  0.00  0.00     0.018 C 
ENDROOT
BRANCH  14  23
HETATM   23  O   UNK N   1      28.425  57.687  36.718  0.00  0.00    -0.395 OA
HETATM   24  H   UNK N   1      27.634  58.063  37.185  0.00  0.00     0.210 HD
ENDBRANCH  14  23
TORSDOF 1
ENDMDL
MODEL 4
REMARK VINA RESULT:      -6.0     11.264     15.994
REMARK  1 active torsions:
REMARK  status: ('A' for Active; 'I' for Inactive)
REMARK    1  A    between atoms: C_14  and  O_15 
ROOT
HETATM    1  O   UNK N   1      33.740  52.884  45.531  0.00  0.00    -0.260 OA
HETATM    2  C   UNK N   1      32.889  53.106  44.689  0.00  0.00     0.290 A 
HETATM    3  O   UNK N   1      32.192  54.257  44.614  0.00  0.00    -0.307 OA
HETATM    4  C   UNK N   1      31.279  54.192  43.568  0.00  0.00     0.166 A 
HETATM    5  C   UNK N   1      31.597  52.875  42.918  0.00  0.00    -0.017 A 
HETATM    6  C   UNK N   1      32.516  52.221  43.616  0.00  0.00     0.022 A 
HETATM    7  C   UNK N   1      33.116  50.872  43.334  0.00  0.00     0.055 C 
HETATM    8  C   UNK N   1      30.945  52.503  41.657  0.00  0.00     0.013 C 
HETATM    9  C   UNK N   1      30.394  53.479  40.897  0.00  0.00    -0.074 C 
HETATM   10  C   UNK N   1      29.677  53.106  39.627  0.00  0.00     0.035 C 
HETATM   11  C   UNK N   1      29.062  54.339  38.951  0.00  0.00     0.010 C 
HETATM   12  C   UNK N   1      28.200  55.158  39.959  0.00  0.00     0.005 C 
HETATM   13  C   UNK N   1      27.327  56.281  39.227  0.00  0.00    -0.017 C 
HETATM   14  C   UNK N   1      26.783  57.268  40.295  0.00  0.00     0.126 C 
HETATM   15  C   UNK N   1      27.897  57.975  41.100  0.00  0.00     0.033 C 
HETATM   16  C   UNK N   1      29.202  57.171  41.238  0.00  0.00     0.012 C 
HETATM   17  C   UNK N   1      29.031  55.630  41.264  0.00  0.00    -0.032 C 
HETATM   18  C   UNK N   1      30.479  54.974  41.269  0.00  0.00     0.026 C 
HETATM   19  C   UNK N   1      31.430  55.263  42.495  0.00  0.00     0.047 C 
HETATM   20  C   UNK N   1      28.257  55.231  42.547  0.00  0.00     0.016 C 
HETATM   21  C   UNK N   1      28.099  57.050  38.117  0.00  0.00     0.018 C 
HETATM   22  C   UNK N   1      26.111  55.604  38.534  0.00  0.00     0.018 C 
ENDROOT
BRANCH  14  23
HETATM   23  O   UNK N   1      25.926  58.226  39.722  0.00  0.00    -0.395 OA
HETATM   24  H   UNK N   1      25.003  57.864  39.770  0.00  0.00     0.210 HD
ENDBRANCH  14  23
TORSDOF 1
ENDMDL
MODEL 5
REMARK VINA RESULT:      -5.9      9.963     13.383
REMARK  1 active torsions:
REMARK  status: ('A' for Active; 'I' for Inactive)
REMARK    1  A    between atoms: C_14  and  O_15 
ROOT
HETATM    1  O   UNK N   1      27.707  58.733  40.367  0.00  0.00    -0.260 OA
HETATM    2  C   UNK N   1      28.419  57.769  40.587  0.00  0.00     0.290 A 
HETATM    3  O   UNK N   1      29.057  57.560  41.755  0.00  0.00    -0.307 OA
HETATM    4  C   UNK N   1      29.810  56.395  41.683  0.00  0.00     0.166 A 
HETATM    5  C   UNK N   1      29.448  55.836  40.336  0.00  0.00    -0.017 A 
HETATM    6  C   UNK N   1      28.663  56.679  39.678  0.00  0.00     0.022 A 
HETATM    7  C   UNK N   1      28.076  56.527  38.303  0.00  0.00     0.055 C 
HETATM    8  C   UNK N   1      29.923  54.505  39.942  0.00  0.00     0.013 C 
HETATM    9  C   UNK N   1      30.324  53.645  40.909  0.00  0.00    -0.074 C 
HETATM   10  C   UNK N   1      30.862  52.295  40.516  0.00  0.00     0.035 C 
HETATM   11  C   UNK N   1      31.329  51.501  41.744  0.00  0.00     0.010 C 
HETATM   12  C   UNK N   1      32.298  52.350  42.622  0.00  0.00     0.005 C 
HETATM   13  C   UNK N   1      33.016  51.466  43.746  0.00  0.00    -0.017 C 
HETATM   14  C   UNK N   1      33.674  52.414  44.784  0.00  0.00     0.126 C 
HETATM   15  C   UNK N   1      32.665  53.353  45.484  0.00  0.00     0.033 C 
HETATM   16  C   UNK N   1      31.422  53.702  44.644  0.00  0.00     0.012 C 
HETATM   17  C   UNK N   1      31.649  53.748  43.111  0.00  0.00    -0.032 C 
HETATM   18  C   UNK N   1      30.241  53.983  42.412  0.00  0.00     0.026 C 
HETATM   19  C   UNK N   1      29.468  55.325  42.713  0.00  0.00     0.047 C 
HETATM   20  C   UNK N   1      32.614  54.915  42.780  0.00  0.00     0.016 C 
HETATM   21  C   UNK N   1      32.065  50.459  44.454  0.00  0.00     0.018 C 
HETATM   22  C   UNK N   1      34.142  50.623  43.084  0.00  0.00     0.018 C 
ENDROOT
BRANCH  14  23
HETATM   23  O   UNK N   1      34.406  51.695  45.749  0.00  0.00    -0.395 OA
HETATM   24  H   UNK N   1      33.749  51.230  46.330  0.00  0.00     0.210 HD
ENDBRANCH  14  23
TORSDOF 1
ENDMDL
MODEL 6
REMARK VINA RESULT:      -5.9     13.879     15.697
REMARK  1 active torsions:
REMARK  status: ('A' for Active; 'I' for Inactive)
REMARK    1  A    between atoms: C_14  and  O_15 
ROOT
HETATM    1  O   UNK N   1      27.547  50.928  57.728  0.00  0.00    -0.260 OA
HETATM    2  C   UNK N   1      28.209  49.929  57.946  0.00  0.00     0.290 A 
HETATM    3  O   UNK N   1      27.918  49.032  58.909  0.00  0.00    -0.307 OA
HETATM    4  C   UNK N   1      28.875  48.025  58.924  0.00  0.00     0.166 A 
HETATM    5  C   UNK N   1      29.741  48.357  57.742  0.00  0.00    -0.017 A 
HETATM    6  C   UNK N   1      29.368  49.509  57.200  0.00  0.00     0.022 A 
HETATM    7  C   UNK N   1      29.959  50.218  56.014  0.00  0.00     0.055 C 
HETATM    8  C   UNK N   1      30.791  47.425  57.317  0.00  0.00     0.013 C 
HETATM    9  C   UNK N   1      30.714  46.133  57.715  0.00  0.00    -0.074 C 
HETATM   10  C   UNK N   1      31.812  45.178  57.329  0.00  0.00     0.035 C 
HETATM   11  C   UNK N   1      31.580  43.787  57.935  0.00  0.00     0.010 C 
HETATM   12  C   UNK N   1      31.319  43.882  59.469  0.00  0.00     0.005 C 
HETATM   13  C   UNK N   1      31.352  42.445  60.172  0.00  0.00    -0.017 C 
HETATM   14  C   UNK N   1      30.746  42.570  61.596  0.00  0.00     0.126 C 
HETATM   15  C   UNK N   1      29.284  43.072  61.598  0.00  0.00     0.033 C 
HETATM   16  C   UNK N   1      28.911  43.973  60.406  0.00  0.00     0.012 C 
HETATM   17  C   UNK N   1      30.067  44.836  59.840  0.00  0.00    -0.032 C 
HETATM   18  C   UNK N   1      29.534  45.584  58.543  0.00  0.00     0.026 C 
HETATM   19  C   UNK N   1      28.348  46.612  58.704  0.00  0.00     0.047 C 
HETATM   20  C   UNK N   1      30.499  45.867  60.915  0.00  0.00     0.016 C 
HETATM   21  C   UNK N   1      30.621  41.335  59.364  0.00  0.00     0.018 C 
HETATM   22  C   UNK N   1      32.831  41.987  60.318  0.00  0.00     0.018 C 
ENDROOT
BRANCH  14  23
HETATM   23  O   UNK N   1      30.835  41.356  62.303  0.00  0.00    -0.395 OA
HETATM   24  H   UNK N   1      29.981  41.237  62.794  0.00  0.00     0.210 HD
ENDBRANCH  14  23
TORSDOF 1
ENDMDL
MODEL 7
REMARK VINA RESULT:      -5.8     11.714     16.719
REMARK  1 active torsions:
REMARK  status: ('A' for Active; 'I' for Inactive)
REMARK    1  A    between atoms: C_14  and  O_15 
ROOT
HETATM    1  O   UNK N   1      32.413  53.456  45.364  0.00  0.00    -0.260 OA
HETATM    2  C   UNK N   1      31.846  53.665  44.306  0.00  0.00     0.290 A 
HETATM    3  O   UNK N   1      31.324  54.857  43.959  0.00  0.00    -0.307 OA
HETATM    4  C   UNK N   1      30.721  54.766  42.710  0.00  0.00     0.166 A 
HETATM    5  C   UNK N   1      31.055  53.369  42.270  0.00  0.00    -0.017 A 
HETATM    6  C   UNK N   1      31.678  52.712  43.239  0.00  0.00     0.022 A 
HETATM    7  C   UNK N   1      32.181  51.296  43.233  0.00  0.00     0.055 C 
HETATM    8  C   UNK N   1      30.725  52.929  40.910  0.00  0.00     0.013 C 
HETATM    9  C   UNK N   1      30.506  53.869  39.958  0.00  0.00    -0.074 C 
HETATM   10  C   UNK N   1      30.117  53.433  38.571  0.00  0.00     0.035 C 
HETATM   11  C   UNK N   1      29.842  54.640  37.663  0.00  0.00     0.010 C 
HETATM   12  C   UNK N   1      28.838  55.626  38.334  0.00  0.00     0.005 C 
HETATM   13  C   UNK N   1      28.318  56.740  37.310  0.00  0.00    -0.017 C 
HETATM   14  C   UNK N   1      27.621  57.871  38.112  0.00  0.00     0.126 C 
HETATM   15  C   UNK N   1      28.550  58.558  39.138  0.00  0.00     0.033 C 
HETATM   16  C   UNK N   1      29.676  57.663  39.688  0.00  0.00     0.012 C 
HETATM   17  C   UNK N   1      29.338  56.153  39.779  0.00  0.00    -0.032 C 
HETATM   18  C   UNK N   1      30.652  55.380  40.229  0.00  0.00     0.026 C 
HETATM   19  C   UNK N   1      31.267  55.708  41.645  0.00  0.00     0.047 C 
HETATM   20  C   UNK N   1      28.211  55.952  40.826  0.00  0.00     0.016 C 
HETATM   21  C   UNK N   1      29.437  57.326  36.402  0.00  0.00     0.018 C 
HETATM   22  C   UNK N   1      27.265  56.103  36.361  0.00  0.00     0.018 C 
ENDROOT
BRANCH  14  23
HETATM   23  O   UNK N   1      27.056  58.837  37.258  0.00  0.00    -0.395 OA
HETATM   24  H   UNK N   1      26.078  58.845  37.427  0.00  0.00     0.210 HD
ENDBRANCH  14  23
TORSDOF 1
ENDMDL
MODEL 8
REMARK VINA RESULT:      -5.7      1.784      3.254
REMARK  1 active torsions:
REMARK  status: ('A' for Active; 'I' for Inactive)
REMARK    1  A    between atoms: C_14  and  O_15 
ROOT
HETATM    1  O   UNK N   1      39.661  52.242  42.552  0.00  0.00    -0.260 OA
HETATM    2  C   UNK N   1      39.758  51.223  43.213  0.00  0.00     0.290 A 
HETATM    3  O   UNK N   1      40.611  51.080  44.247  0.00  0.00    -0.307 OA
HETATM    4  C   UNK N   1      40.505  49.799  44.775  0.00  0.00     0.166 A 
HETATM    5  C   UNK N   1      39.367  49.201  43.999  0.00  0.00    -0.017 A 
HETATM    6  C   UNK N   1      38.964  50.033  43.047  0.00  0.00     0.022 A 
HETATM    7  C   UNK N   1      37.867  49.837  42.039  0.00  0.00     0.055 C 
HETATM    8  C   UNK N   1      38.832  47.887  44.374  0.00  0.00     0.013 C 
HETATM    9  C   UNK N   1      39.077  47.418  45.621  0.00  0.00    -0.074 C 
HETATM   10  C   UNK N   1      38.579  46.050  46.003  0.00  0.00     0.035 C 
HETATM   11  C   UNK N   1      39.020  45.672  47.424  0.00  0.00     0.010 C 
HETATM   12  C   UNK N   1      40.555  45.871  47.604  0.00  0.00     0.005 C 
HETATM   13  C   UNK N   1      41.086  45.228  48.969  0.00  0.00    -0.017 C 
HETATM   14  C   UNK N   1      42.517  45.760  49.251  0.00  0.00     0.126 C 
HETATM   15  C   UNK N   1      42.583  47.298  49.388  0.00  0.00     0.033 C 
HETATM   16  C   UNK N   1      41.505  48.062  48.596  0.00  0.00     0.012 C 
HETATM   17  C   UNK N   1      41.040  47.381  47.284  0.00  0.00    -0.032 C 
HETATM   18  C   UNK N   1      39.840  48.235  46.685  0.00  0.00     0.026 C 
HETATM   19  C   UNK N   1      40.124  49.724  46.249  0.00  0.00     0.047 C 
HETATM   20  C   UNK N   1      42.226  47.347  46.286  0.00  0.00     0.016 C 
HETATM   21  C   UNK N   1      40.157  45.490  50.189  0.00  0.00     0.018 C 
HETATM   22  C   UNK N   1      41.172  43.684  48.801  0.00  0.00     0.018 C 
ENDROOT
BRANCH  14  23
HETATM   23  O   UNK N   1      43.077  45.155  50.392  0.00  0.00    -0.395 OA
HETATM   24  H   UNK N   1      42.833  44.193  50.366  0.00  0.00     0.210 HD
ENDBRANCH  14  23
TORSDOF 1
ENDMDL
MODEL 9
REMARK VINA RESULT:      -5.6     15.484     17.473
REMARK  1 active torsions:
REMARK  status: ('A' for Active; 'I' for Inactive)
REMARK    1  A    between atoms: C_14  and  O_15 
ROOT
HETATM    1  O   UNK N   1      29.404  41.670  62.781  0.00  0.00    -0.260 OA
HETATM    2  C   UNK N   1      30.424  42.325  62.651  0.00  0.00     0.290 A 
HETATM    3  O   UNK N   1      30.866  43.213  63.563  0.00  0.00    -0.307 OA
HETATM    4  C   UNK N   1      32.033  43.816  63.111  0.00  0.00     0.166 A 
HETATM    5  C   UNK N   1      32.326  43.081  61.833  0.00  0.00    -0.017 A 
HETATM    6  C   UNK N   1      31.344  42.236  61.546  0.00  0.00     0.022 A 
HETATM    7  C   UNK N   1      31.222  41.314  60.366  0.00  0.00     0.055 C 
HETATM    8  C   UNK N   1      33.586  43.322  61.121  0.00  0.00     0.013 C 
HETATM    9  C   UNK N   1      34.622  43.871  61.799  0.00  0.00    -0.074 C 
HETATM   10  C   UNK N   1      35.903  44.170  61.067  0.00  0.00     0.035 C 
HETATM   11  C   UNK N   1      36.924  44.855  61.987  0.00  0.00     0.010 C 
HETATM   12  C   UNK N   1      36.291  46.085  62.707  0.00  0.00     0.005 C 
HETATM   13  C   UNK N   1      37.392  46.977  63.447  0.00  0.00    -0.017 C 
HETATM   14  C   UNK N   1      36.676  47.955  64.416  0.00  0.00     0.126 C 
HETATM   15  C   UNK N   1      35.832  47.240  65.496  0.00  0.00     0.033 C 
HETATM   16  C   UNK N   1      35.282  45.865  65.078  0.00  0.00     0.012 C 
HETATM   17  C   UNK N   1      34.974  45.706  63.566  0.00  0.00    -0.032 C 
HETATM   18  C   UNK N   1      34.554  44.195  63.305  0.00  0.00     0.026 C 
HETATM   19  C   UNK N   1      33.253  43.646  64.008  0.00  0.00     0.047 C 
HETATM   20  C   UNK N   1      33.812  46.660  63.186  0.00  0.00     0.016 C 
HETATM   21  C   UNK N   1      38.465  46.145  64.208  0.00  0.00     0.018 C 
HETATM   22  C   UNK N   1      38.155  47.822  62.388  0.00  0.00     0.018 C 
ENDROOT
BRANCH  14  23
HETATM   23  O   UNK N   1      37.588  48.836  65.029  0.00  0.00    -0.395 OA
HETATM   24  H   UNK N   1      37.383  49.749  64.698  0.00  0.00     0.210 HD
ENDBRANCH  14  23
TORSDOF 1
ENDMDL
