MODEL 1
REMARK VINA RESULT:      -6.3      0.000      0.000
REMARK  1 active torsions:
REMARK  status: ('A' for Active; 'I' for Inactive)
REMARK    1  A    between atoms: C_3  and  O_4 
ROOT
HETATM    1  O   UNK N   1      44.111  48.404  46.570  0.00  0.00    -0.295 OA
HETATM    2  C   UNK N   1      43.005  48.034  46.935  0.00  0.00     0.156 C 
HETATM    3  C   UNK N   1      41.765  48.567  46.251  0.00  0.00     0.195 C 
HETATM    4  C   UNK N   1      40.855  47.365  45.856  0.00  0.00    -0.010 C 
HETATM    5  C   UNK N   1      40.396  46.597  47.174  0.00  0.00     0.006 C 
HETATM    6  C   UNK N   1      41.461  46.563  48.389  0.00  0.00    -0.025 C 
HETATM    7  C   UNK N   1      41.473  45.135  49.082  0.00  0.00     0.026 C 
HETATM    8  C   UNK N   1      40.026  44.643  49.306  0.00  0.00    -0.074 C 
HETATM    9  C   UNK N   1      39.576  44.222  50.514  0.00  0.00     0.013 C 
HETATM   10  C   UNK N   1      40.480  44.296  51.668  0.00  0.00    -0.017 A 
HETATM   11  C   UNK N   1      40.446  43.615  52.805  0.00  0.00     0.022 A 
HETATM   12  C   UNK N   1      39.433  42.602  53.254  0.00  0.00     0.055 C 
HETATM   13  C   UNK N   1      41.640  43.994  53.515  0.00  0.00     0.290 A 
HETATM   14  O   UNK N   1      42.358  44.878  52.796  0.00  0.00    -0.307 OA
HETATM   15  C   UNK N   1      41.675  45.205  51.630  0.00  0.00     0.166 A 
HETATM   16  C   UNK N   1      42.411  44.905  50.328  0.00  0.00     0.047 C 
HETATM   17  O   UNK N   1      41.993  43.559  54.598  0.00  0.00    -0.260 OA
HETATM   18  C   UNK N   1      39.091  44.629  48.128  0.00  0.00     0.035 C 
HETATM   19  C   UNK N   1      39.765  45.203  46.875  0.00  0.00     0.010 C 
HETATM   20  C   UNK N   1      42.907  46.884  47.902  0.00  0.00     0.091 C 
HETATM   21  C   UNK N   1      41.069  47.658  49.421  0.00  0.00     0.016 C 
HETATM   22  C   UNK N   1      41.605  46.431  44.862  0.00  0.00     0.018 C 
HETATM   23  C   UNK N   1      39.607  47.913  45.114  0.00  0.00     0.018 C 
ENDROOT
BRANCH   3  24
HETATM   24  O   UNK N   1      42.123  49.309  45.108  0.00  0.00    -0.387 OA
HETATM   25  H   UNK N   1      43.040  49.028  44.850  0.00  0.00     0.210 HD
ENDBRANCH   3  24
TORSDOF 1
ENDMDL
MODEL 2
REMARK VINA RESULT:      -5.9     13.603     16.469
REMARK  1 active torsions:
REMARK  status: ('A' for Active; 'I' for Inactive)
REMARK    1  A    between atoms: C_3  and  O_4 
ROOT
HETATM    1  O   UNK N   1      28.334  42.345  61.988  0.00  0.00    -0.295 OA
HETATM    2  C   UNK N   1      29.229  42.945  61.412  0.00  0.00     0.156 C 
HETATM    3  C   UNK N   1      30.667  42.505  61.585  0.00  0.00     0.195 C 
HETATM    4  C   UNK N   1      31.318  42.359  60.176  0.00  0.00    -0.010 C 
HETATM    5  C   UNK N   1      31.323  43.776  59.449  0.00  0.00     0.006 C 
HETATM    6  C   UNK N   1      30.073  44.748  59.770  0.00  0.00    -0.025 C 
HETATM    7  C   UNK N   1      29.588  45.488  58.451  0.00  0.00     0.026 C 
HETATM    8  C   UNK N   1      30.805  46.024  57.666  0.00  0.00    -0.074 C 
HETATM    9  C   UNK N   1      30.906  47.316  57.267  0.00  0.00     0.013 C 
HETATM   10  C   UNK N   1      29.846  48.257  57.650  0.00  0.00    -0.017 A 
HETATM   11  C   UNK N   1      29.501  49.406  57.088  0.00  0.00     0.022 A 
HETATM   12  C   UNK N   1      30.139  50.098  55.916  0.00  0.00     0.055 C 
HETATM   13  C   UNK N   1      28.323  49.841  57.792  0.00  0.00     0.290 A 
HETATM   14  O   UNK N   1      27.987  48.951  58.745  0.00  0.00    -0.307 OA
HETATM   15  C   UNK N   1      28.934  47.935  58.799  0.00  0.00     0.166 A 
HETATM   16  C   UNK N   1      28.406  46.526  58.556  0.00  0.00     0.047 C 
HETATM   17  O   UNK N   1      27.678  50.847  57.549  0.00  0.00    -0.260 OA
HETATM   18  C   UNK N   1      31.913  45.064  57.332  0.00  0.00     0.035 C 
HETATM   19  C   UNK N   1      31.644  43.675  57.926  0.00  0.00     0.010 C 
HETATM   20  C   UNK N   1      28.864  43.962  60.364  0.00  0.00     0.091 C 
HETATM   21  C   UNK N   1      30.516  45.788  60.838  0.00  0.00     0.016 C 
HETATM   22  C   UNK N   1      30.566  41.276  59.349  0.00  0.00     0.018 C 
HETATM   23  C   UNK N   1      32.778  41.863  60.355  0.00  0.00     0.018 C 
ENDROOT
BRANCH   3  24
HETATM   24  O   UNK N   1      30.719  41.280  62.280  0.00  0.00    -0.387 OA
HETATM   25  H   UNK N   1      31.659  40.963  62.249  0.00  0.00     0.210 HD
ENDBRANCH   3  24
TORSDOF 1
ENDMDL
MODEL 3
REMARK VINA RESULT:      -5.5     13.508     16.260
REMARK  1 active torsions:
REMARK  status: ('A' for Active; 'I' for Inactive)
REMARK    1  A    between atoms: C_3  and  O_4 
ROOT
HETATM    1  O   UNK N   1      32.568  42.948  57.272  0.00  0.00    -0.295 OA
HETATM    2  C   UNK N   1      31.726  43.432  58.014  0.00  0.00     0.156 C 
HETATM    3  C   UNK N   1      31.154  42.608  59.148  0.00  0.00     0.195 C 
HETATM    4  C   UNK N   1      31.240  43.440  60.464  0.00  0.00    -0.010 C 
HETATM    5  C   UNK N   1      30.351  44.753  60.315  0.00  0.00     0.006 C 
HETATM    6  C   UNK N   1      30.279  45.404  58.838  0.00  0.00    -0.025 C 
HETATM    7  C   UNK N   1      30.350  46.988  58.921  0.00  0.00     0.026 C 
HETATM    8  C   UNK N   1      29.418  47.502  60.040  0.00  0.00    -0.074 C 
HETATM    9  C   UNK N   1      28.482  48.460  59.829  0.00  0.00     0.013 C 
HETATM   10  C   UNK N   1      28.304  48.985  58.470  0.00  0.00    -0.017 A 
HETATM   11  C   UNK N   1      27.784  50.139  58.078  0.00  0.00     0.022 A 
HETATM   12  C   UNK N   1      27.182  51.224  58.924  0.00  0.00     0.055 C 
HETATM   13  C   UNK N   1      27.978  50.183  56.651  0.00  0.00     0.290 A 
HETATM   14  O   UNK N   1      28.607  49.071  56.226  0.00  0.00    -0.307 OA
HETATM   15  C   UNK N   1      28.796  48.197  57.290  0.00  0.00     0.166 A 
HETATM   16  C   UNK N   1      30.244  47.822  57.588  0.00  0.00     0.047 C 
HETATM   17  O   UNK N   1      27.664  51.105  55.918  0.00  0.00    -0.260 OA
HETATM   18  C   UNK N   1      29.569  46.914  61.416  0.00  0.00     0.035 C 
HETATM   19  C   UNK N   1      30.630  45.804  61.433  0.00  0.00     0.010 C 
HETATM   20  C   UNK N   1      31.445  44.909  57.928  0.00  0.00     0.091 C 
HETATM   21  C   UNK N   1      28.950  44.960  58.166  0.00  0.00     0.016 C 
HETATM   22  C   UNK N   1      32.725  43.769  60.792  0.00  0.00     0.018 C 
HETATM   23  C   UNK N   1      30.696  42.575  61.631  0.00  0.00     0.018 C 
ENDROOT
BRANCH   3  24
HETATM   24  O   UNK N   1      31.872  41.403  59.281  0.00  0.00    -0.387 OA
HETATM   25  H   UNK N   1      32.360  41.255  58.429  0.00  0.00     0.210 HD
ENDBRANCH   3  24
TORSDOF 1
ENDMDL
MODEL 4
REMARK VINA RESULT:      -5.3     13.722     16.189
REMARK  1 active torsions:
REMARK  status: ('A' for Active; 'I' for Inactive)
REMARK    1  A    between atoms: C_3  and  O_4 
ROOT
HETATM    1  O   UNK N   1      26.163  49.888  61.116  0.00  0.00    -0.295 OA
HETATM    2  C   UNK N   1      26.712  49.410  60.135  0.00  0.00     0.156 C 
HETATM    3  C   UNK N   1      26.368  49.921  58.752  0.00  0.00     0.195 C 
HETATM    4  C   UNK N   1      27.691  50.255  57.999  0.00  0.00    -0.010 C 
HETATM    5  C   UNK N   1      28.552  48.926  57.831  0.00  0.00     0.006 C 
HETATM    6  C   UNK N   1      28.442  47.848  59.029  0.00  0.00    -0.025 C 
HETATM    7  C   UNK N   1      29.866  47.221  59.348  0.00  0.00     0.026 C 
HETATM    8  C   UNK N   1      30.588  46.848  58.034  0.00  0.00    -0.074 C 
HETATM    9  C   UNK N   1      31.102  45.615  57.807  0.00  0.00     0.013 C 
HETATM   10  C   UNK N   1      30.911  44.573  58.823  0.00  0.00    -0.017 A 
HETATM   11  C   UNK N   1      31.613  43.469  59.036  0.00  0.00     0.022 A 
HETATM   12  C   UNK N   1      32.785  42.947  58.255  0.00  0.00     0.055 C 
HETATM   13  C   UNK N   1      31.064  42.889  60.234  0.00  0.00     0.290 A 
HETATM   14  O   UNK N   1      30.062  43.651  60.711  0.00  0.00    -0.307 OA
HETATM   15  C   UNK N   1      29.822  44.714  59.848  0.00  0.00     0.166 A 
HETATM   16  C   UNK N   1      29.971  46.104  60.456  0.00  0.00     0.047 C 
HETATM   17  O   UNK N   1      31.462  41.875  60.781  0.00  0.00    -0.260 OA
HETATM   18  C   UNK N   1      30.724  47.907  56.975  0.00  0.00     0.035 C 
HETATM   19  C   UNK N   1      30.022  49.207  57.393  0.00  0.00     0.010 C 
HETATM   20  C   UNK N   1      27.884  48.488  60.337  0.00  0.00     0.091 C 
HETATM   21  C   UNK N   1      27.447  46.732  58.601  0.00  0.00     0.016 C 
HETATM   22  C   UNK N   1      28.471  51.369  58.757  0.00  0.00     0.018 C 
HETATM   23  C   UNK N   1      27.333  50.822  56.599  0.00  0.00     0.018 C 
ENDROOT
BRANCH   3  24
HETATM   24  O   UNK N   1      25.553  51.067  58.847  0.00  0.00    -0.387 OA
HETATM   25  H   UNK N   1      25.072  51.014  59.714  0.00  0.00     0.210 HD
ENDBRANCH   3  24
TORSDOF 1
ENDMDL
MODEL 5
REMARK VINA RESULT:      -4.8     13.075     15.332
REMARK  1 active torsions:
REMARK  status: ('A' for Active; 'I' for Inactive)
REMARK    1  A    between atoms: C_3  and  O_4 
ROOT
HETATM    1  O   UNK N   1      27.685  41.072  50.725  0.00  0.00    -0.295 OA
HETATM    2  C   UNK N   1      27.378  41.097  51.907  0.00  0.00     0.156 C 
HETATM    3  C   UNK N   1      25.926  40.963  52.314  0.00  0.00     0.195 C 
HETATM    4  C   UNK N   1      25.813  39.863  53.412  0.00  0.00    -0.010 C 
HETATM    5  C   UNK N   1      26.643  40.313  54.695  0.00  0.00     0.006 C 
HETATM    6  C   UNK N   1      27.979  41.176  54.415  0.00  0.00    -0.025 C 
HETATM    7  C   UNK N   1      29.154  40.716  55.381  0.00  0.00     0.026 C 
HETATM    8  C   UNK N   1      28.623  40.556  56.822  0.00  0.00    -0.074 C 
HETATM    9  C   UNK N   1      29.205  41.160  57.887  0.00  0.00     0.013 C 
HETATM   10  C   UNK N   1      30.347  42.053  57.653  0.00  0.00    -0.017 A 
HETATM   11  C   UNK N   1      31.304  42.427  58.491  0.00  0.00     0.022 A 
HETATM   12  C   UNK N   1      31.461  42.075  59.942  0.00  0.00     0.055 C 
HETATM   13  C   UNK N   1      32.227  43.199  57.699  0.00  0.00     0.290 A 
HETATM   14  O   UNK N   1      31.811  43.265  56.420  0.00  0.00    -0.307 OA
HETATM   15  C   UNK N   1      30.580  42.634  56.288  0.00  0.00     0.166 A 
HETATM   16  C   UNK N   1      30.536  41.471  55.304  0.00  0.00     0.047 C 
HETATM   17  O   UNK N   1      33.265  43.697  58.100  0.00  0.00    -0.260 OA
HETATM   18  C   UNK N   1      27.415  39.687  57.041  0.00  0.00     0.035 C 
HETATM   19  C   UNK N   1      26.866  39.151  55.711  0.00  0.00     0.010 C 
HETATM   20  C   UNK N   1      28.469  41.027  52.942  0.00  0.00     0.091 C 
HETATM   21  C   UNK N   1      27.654  42.679  54.643  0.00  0.00     0.016 C 
HETATM   22  C   UNK N   1      26.296  38.494  52.850  0.00  0.00     0.018 C 
HETATM   23  C   UNK N   1      24.319  39.697  53.793  0.00  0.00     0.018 C 
ENDROOT
BRANCH   3  24
HETATM   24  O   UNK N   1      25.139  40.624  51.196  0.00  0.00    -0.387 OA
HETATM   25  H   UNK N   1      25.387  41.244  50.461  0.00  0.00     0.210 HD
ENDBRANCH   3  24
TORSDOF 1
ENDMDL
MODEL 6
REMARK VINA RESULT:      -4.8     14.196     16.954
REMARK  1 active torsions:
REMARK  status: ('A' for Active; 'I' for Inactive)
REMARK    1  A    between atoms: C_3  and  O_4 
ROOT
HETATM    1  O   UNK N   1      29.590  36.571  59.310  0.00  0.00    -0.295 OA
HETATM    2  C   UNK N   1      29.308  37.745  59.125  0.00  0.00     0.156 C 
HETATM    3  C   UNK N   1      29.004  38.644  60.304  0.00  0.00     0.195 C 
HETATM    4  C   UNK N   1      29.859  39.941  60.178  0.00  0.00    -0.010 C 
HETATM    5  C   UNK N   1      29.446  40.718  58.850  0.00  0.00     0.006 C 
HETATM    6  C   UNK N   1      29.005  39.801  57.595  0.00  0.00    -0.025 C 
HETATM    7  C   UNK N   1      29.596  40.385  56.242  0.00  0.00     0.026 C 
HETATM    8  C   UNK N   1      29.395  41.915  56.192  0.00  0.00    -0.074 C 
HETATM    9  C   UNK N   1      28.804  42.541  55.145  0.00  0.00     0.013 C 
HETATM   10  C   UNK N   1      28.278  41.727  54.042  0.00  0.00    -0.017 A 
HETATM   11  C   UNK N   1      28.038  42.072  52.785  0.00  0.00     0.022 A 
HETATM   12  C   UNK N   1      28.193  43.421  52.144  0.00  0.00     0.055 C 
HETATM   13  C   UNK N   1      27.656  40.854  52.119  0.00  0.00     0.290 A 
HETATM   14  O   UNK N   1      27.682  39.817  52.978  0.00  0.00    -0.307 OA
HETATM   15  C   UNK N   1      27.990  40.268  54.256  0.00  0.00     0.166 A 
HETATM   16  C   UNK N   1      29.240  39.664  54.886  0.00  0.00     0.047 C 
HETATM   17  O   UNK N   1      27.384  40.744  50.935  0.00  0.00    -0.260 OA
HETATM   18  C   UNK N   1      29.883  42.733  57.356  0.00  0.00     0.035 C 
HETATM   19  C   UNK N   1      30.457  41.839  58.464  0.00  0.00     0.010 C 
HETATM   20  C   UNK N   1      29.496  38.329  57.750  0.00  0.00     0.091 C 
HETATM   21  C   UNK N   1      27.451  39.764  57.531  0.00  0.00     0.016 C 
HETATM   22  C   UNK N   1      31.374  39.588  60.205  0.00  0.00     0.018 C 
HETATM   23  C   UNK N   1      29.578  40.839  61.412  0.00  0.00     0.018 C 
ENDROOT
BRANCH   3  24
HETATM   24  O   UNK N   1      29.297  37.977  61.510  0.00  0.00    -0.387 OA
HETATM   25  H   UNK N   1      28.506  38.076  62.102  0.00  0.00     0.210 HD
ENDBRANCH   3  24
TORSDOF 1
ENDMDL
MODEL 7
REMARK VINA RESULT:      -4.8     13.741     15.257
REMARK  1 active torsions:
REMARK  status: ('A' for Active; 'I' for Inactive)
REMARK    1  A    between atoms: C_3  and  O_4 
ROOT
HETATM    1  O   UNK N   1      51.349  52.125  55.850  0.00  0.00    -0.295 OA
HETATM    2  C   UNK N   1      51.100  53.320  55.902  0.00  0.00     0.156 C 
HETATM    3  C   UNK N   1      52.046  54.318  55.268  0.00  0.00     0.195 C 
HETATM    4  C   UNK N   1      51.224  55.279  54.358  0.00  0.00    -0.010 C 
HETATM    5  C   UNK N   1      50.183  56.089  55.251  0.00  0.00     0.006 C 
HETATM    6  C   UNK N   1      49.569  55.302  56.523  0.00  0.00    -0.025 C 
HETATM    7  C   UNK N   1      48.021  55.616  56.679  0.00  0.00     0.026 C 
HETATM    8  C   UNK N   1      47.766  57.130  56.508  0.00  0.00    -0.074 C 
HETATM    9  C   UNK N   1      47.082  57.864  57.420  0.00  0.00     0.013 C 
HETATM   10  C   UNK N   1      46.618  57.208  58.648  0.00  0.00    -0.017 A 
HETATM   11  C   UNK N   1      45.635  57.557  59.465  0.00  0.00     0.022 A 
HETATM   12  C   UNK N   1      44.743  58.763  59.388  0.00  0.00     0.055 C 
HETATM   13  C   UNK N   1      45.539  56.491  60.429  0.00  0.00     0.290 A 
HETATM   14  O   UNK N   1      46.450  55.535  60.167  0.00  0.00    -0.307 OA
HETATM   15  C   UNK N   1      47.249  55.921  59.097  0.00  0.00     0.166 A 
HETATM   16  C   UNK N   1      47.239  54.985  57.894  0.00  0.00     0.047 C 
HETATM   17  O   UNK N   1      44.727  56.422  61.336  0.00  0.00    -0.260 OA
HETATM   18  C   UNK N   1      48.300  57.804  55.274  0.00  0.00     0.035 C 
HETATM   19  C   UNK N   1      49.099  56.823  54.405  0.00  0.00     0.010 C 
HETATM   20  C   UNK N   1      49.746  53.759  56.391  0.00  0.00     0.091 C 
HETATM   21  C   UNK N   1      50.339  55.747  57.798  0.00  0.00     0.016 C 
HETATM   22  C   UNK N   1      50.524  54.474  53.225  0.00  0.00     0.018 C 
HETATM   23  C   UNK N   1      52.202  56.271  53.675  0.00  0.00     0.018 C 
ENDROOT
BRANCH   3  24
HETATM   24  O   UNK N   1      53.026  53.644  54.513  0.00  0.00    -0.387 OA
HETATM   25  H   UNK N   1      53.831  54.226  54.487  0.00  0.00     0.210 HD
ENDBRANCH   3  24
TORSDOF 1
ENDMDL
MODEL 8
REMARK VINA RESULT:      -4.7     13.287     16.445
REMARK  1 active torsions:
REMARK  status: ('A' for Active; 'I' for Inactive)
REMARK    1  A    between atoms: C_3  and  O_4 
ROOT
HETATM    1  O   UNK N   1      29.308  44.781  64.113  0.00  0.00    -0.295 OA
HETATM    2  C   UNK N   1      30.138  44.820  63.216  0.00  0.00     0.156 C 
HETATM    3  C   UNK N   1      31.436  45.572  63.420  0.00  0.00     0.195 C 
HETATM    4  C   UNK N   1      32.621  44.643  63.019  0.00  0.00    -0.010 C 
HETATM    5  C   UNK N   1      32.503  44.276  61.474  0.00  0.00     0.006 C 
HETATM    6  C   UNK N   1      31.006  44.135  60.885  0.00  0.00    -0.025 C 
HETATM    7  C   UNK N   1      30.912  42.903  59.886  0.00  0.00     0.026 C 
HETATM    8  C   UNK N   1      32.124  42.904  58.929  0.00  0.00    -0.074 C 
HETATM    9  C   UNK N   1      31.991  42.843  57.582  0.00  0.00     0.013 C 
HETATM   10  C   UNK N   1      30.640  42.840  57.006  0.00  0.00    -0.017 A 
HETATM   11  C   UNK N   1      30.234  42.400  55.823  0.00  0.00     0.022 A 
HETATM   12  C   UNK N   1      31.060  41.821  54.711  0.00  0.00     0.055 C 
HETATM   13  C   UNK N   1      28.799  42.525  55.839  0.00  0.00     0.290 A 
HETATM   14  O   UNK N   1      28.382  43.024  57.018  0.00  0.00    -0.307 OA
HETATM   15  C   UNK N   1      29.477  43.337  57.815  0.00  0.00     0.166 A 
HETATM   16  C   UNK N   1      29.542  42.621  59.159  0.00  0.00     0.047 C 
HETATM   17  O   UNK N   1      28.045  42.193  54.941  0.00  0.00    -0.260 OA
HETATM   18  C   UNK N   1      33.501  42.968  59.529  0.00  0.00     0.035 C 
HETATM   19  C   UNK N   1      33.438  43.099  61.057  0.00  0.00     0.010 C 
HETATM   20  C   UNK N   1      29.954  43.929  62.017  0.00  0.00     0.091 C 
HETATM   21  C   UNK N   1      30.637  45.453  60.148  0.00  0.00     0.016 C 
HETATM   22  C   UNK N   1      32.636  43.376  63.925  0.00  0.00     0.018 C 
HETATM   23  C   UNK N   1      33.951  45.400  63.273  0.00  0.00     0.018 C 
ENDROOT
BRANCH   3  24
HETATM   24  O   UNK N   1      31.558  45.972  64.765  0.00  0.00    -0.387 OA
HETATM   25  H   UNK N   1      31.268  46.920  64.818  0.00  0.00     0.210 HD
ENDBRANCH   3  24
TORSDOF 1
ENDMDL
MODEL 9
REMARK VINA RESULT:      -4.5     14.182     15.823
REMARK  1 active torsions:
REMARK  status: ('A' for Active; 'I' for Inactive)
REMARK    1  A    between atoms: C_3  and  O_4 
ROOT
HETATM    1  O   UNK N   1      27.724  40.322  51.846  0.00  0.00    -0.295 OA
HETATM    2  C   UNK N   1      27.646  40.105  53.046  0.00  0.00     0.156 C 
HETATM    3  C   UNK N   1      26.781  38.971  53.555  0.00  0.00     0.195 C 
HETATM    4  C   UNK N   1      27.620  38.105  54.541  0.00  0.00    -0.010 C 
HETATM    5  C   UNK N   1      28.049  38.994  55.791  0.00  0.00     0.006 C 
HETATM    6  C   UNK N   1      28.336  40.556  55.491  0.00  0.00    -0.025 C 
HETATM    7  C   UNK N   1      29.605  41.057  56.305  0.00  0.00     0.026 C 
HETATM    8  C   UNK N   1      29.535  40.547  57.761  0.00  0.00    -0.074 C 
HETATM    9  C   UNK N   1      29.653  41.372  58.830  0.00  0.00     0.013 C 
HETATM   10  C   UNK N   1      29.790  42.815  58.596  0.00  0.00    -0.017 A 
HETATM   11  C   UNK N   1      30.303  43.748  59.386  0.00  0.00     0.022 A 
HETATM   12  C   UNK N   1      30.849  43.594  60.776  0.00  0.00     0.055 C 
HETATM   13  C   UNK N   1      30.299  44.957  58.604  0.00  0.00     0.290 A 
HETATM   14  O   UNK N   1      29.796  44.725  57.377  0.00  0.00    -0.307 OA
HETATM   15  C   UNK N   1      29.365  43.407  57.283  0.00  0.00     0.166 A 
HETATM   16  C   UNK N   1      30.026  42.571  56.193  0.00  0.00     0.047 C 
HETATM   17  O   UNK N   1      30.724  46.041  58.966  0.00  0.00    -0.260 OA
HETATM   18  C   UNK N   1      29.334  39.074  57.989  0.00  0.00     0.035 C 
HETATM   19  C   UNK N   1      29.156  38.325  56.661  0.00  0.00     0.010 C 
HETATM   20  C   UNK N   1      28.591  40.819  53.975  0.00  0.00     0.091 C 
HETATM   21  C   UNK N   1      27.079  41.377  55.896  0.00  0.00     0.016 C 
HETATM   22  C   UNK N   1      28.849  37.496  53.804  0.00  0.00     0.018 C 
HETATM   23  C   UNK N   1      26.745  36.919  55.025  0.00  0.00     0.018 C 
ENDROOT
BRANCH   3  24
HETATM   24  O   UNK N   1      26.326  38.188  52.476  0.00  0.00    -0.387 OA
HETATM   25  H   UNK N   1      26.957  37.429  52.376  0.00  0.00     0.210 HD
ENDBRANCH   3  24
TORSDOF 1
ENDMDL
