MODEL 1
REMARK VINA RESULT:      -6.7      0.000      0.000
REMARK  1 active torsions:
REMARK  status: ('A' for Active; 'I' for Inactive)
REMARK    1  A    between atoms: C_14  and  O_15 
ROOT
HETATM    1  O   UNK N   1      33.726  55.187  45.674  0.00  0.00    -0.260 OA
HETATM    2  C   UNK N   1      32.900  54.867  44.837  0.00  0.00     0.290 A 
HETATM    3  O   UNK N   1      32.048  55.733  44.256  0.00  0.00    -0.307 OA
HETATM    4  C   UNK N   1      31.219  55.059  43.367  0.00  0.00     0.166 A 
HETATM    5  C   UNK N   1      31.763  53.662  43.382  0.00  0.00    -0.017 A 
HETATM    6  C   UNK N   1      32.729  53.547  44.287  0.00  0.00     0.022 A 
HETATM    7  C   UNK N   1      33.546  52.336  44.637  0.00  0.00     0.055 C 
HETATM    8  C   UNK N   1      31.247  52.666  42.435  0.00  0.00     0.013 C 
HETATM    9  C   UNK N   1      30.620  53.095  41.309  0.00  0.00    -0.074 C 
HETATM   10  C   UNK N   1      30.062  52.098  40.335  0.00  0.00     0.035 C 
HETATM   11  C   UNK N   1      28.567  52.391  40.097  0.00  0.00     0.010 C 
HETATM   12  C   UNK N   1      28.268  53.869  39.674  0.00  0.00     0.005 C 
HETATM   13  C   UNK N   1      28.474  54.179  38.112  0.00  0.00    -0.017 C 
HETATM   14  C   UNK N   1      28.226  55.699  37.842  0.00  0.00     0.126 C 
HETATM   15  C   UNK N   1      29.084  56.583  38.764  0.00  0.00     0.033 C 
HETATM   16  C   UNK N   1      28.664  56.353  40.218  0.00  0.00     0.012 C 
HETATM   17  C   UNK N   1      28.913  54.897  40.722  0.00  0.00    -0.032 C 
HETATM   18  C   UNK N   1      30.455  54.592  40.952  0.00  0.00     0.026 C 
HETATM   19  C   UNK N   1      31.272  55.539  41.920  0.00  0.00     0.047 C 
HETATM   20  C   UNK N   1      28.145  54.782  42.067  0.00  0.00     0.016 C 
HETATM   21  C   UNK N   1      29.848  53.786  37.510  0.00  0.00     0.018 C 
HETATM   22  C   UNK N   1      27.424  53.382  37.280  0.00  0.00     0.018 C 
ENDROOT
BRANCH  14  23
HETATM   23  O   UNK N   1      26.865  56.014  38.030  0.00  0.00    -0.395 OA
HETATM   24  H   UNK N   1      26.380  55.703  37.222  0.00  0.00     0.210 HD
ENDBRANCH  14  23
TORSDOF 1
ENDMDL
MODEL 2
REMARK VINA RESULT:      -6.3      9.736     14.998
REMARK  1 active torsions:
REMARK  status: ('A' for Active; 'I' for Inactive)
REMARK    1  A    between atoms: C_14  and  O_15 
ROOT
HETATM    1  O   UNK N   1      39.942  51.585  43.198  0.00  0.00    -0.260 OA
HETATM    2  C   UNK N   1      39.979  50.517  43.782  0.00  0.00     0.290 A 
HETATM    3  O   UNK N   1      41.021  50.109  44.531  0.00  0.00    -0.307 OA
HETATM    4  C   UNK N   1      40.771  48.841  45.042  0.00  0.00     0.166 A 
HETATM    5  C   UNK N   1      39.363  48.568  44.608  0.00  0.00    -0.017 A 
HETATM    6  C   UNK N   1      38.917  49.545  43.826  0.00  0.00     0.022 A 
HETATM    7  C   UNK N   1      37.572  49.682  43.170  0.00  0.00     0.055 C 
HETATM    8  C   UNK N   1      38.666  47.372  45.096  0.00  0.00     0.013 C 
HETATM    9  C   UNK N   1      39.112  46.768  46.228  0.00  0.00    -0.074 C 
HETATM   10  C   UNK N   1      38.434  45.530  46.737  0.00  0.00     0.035 C 
HETATM   11  C   UNK N   1      39.472  44.403  46.902  0.00  0.00     0.010 C 
HETATM   12  C   UNK N   1      40.713  44.802  47.771  0.00  0.00     0.005 C 
HETATM   13  C   UNK N   1      40.489  44.691  49.357  0.00  0.00    -0.017 C 
HETATM   14  C   UNK N   1      41.767  45.197  50.103  0.00  0.00     0.126 C 
HETATM   15  C   UNK N   1      42.173  46.604  49.636  0.00  0.00     0.033 C 
HETATM   16  C   UNK N   1      42.559  46.554  48.155  0.00  0.00     0.012 C 
HETATM   17  C   UNK N   1      41.383  46.147  47.213  0.00  0.00    -0.032 C 
HETATM   18  C   UNK N   1      40.305  47.305  47.056  0.00  0.00     0.026 C 
HETATM   19  C   UNK N   1      40.795  48.726  46.563  0.00  0.00     0.047 C 
HETATM   20  C   UNK N   1      42.035  45.843  45.837  0.00  0.00     0.016 C 
HETATM   21  C   UNK N   1      39.253  45.433  49.930  0.00  0.00     0.018 C 
HETATM   22  C   UNK N   1      40.283  43.196  49.750  0.00  0.00     0.018 C 
ENDROOT
BRANCH  14  23
HETATM   23  O   UNK N   1      42.841  44.308  49.892  0.00  0.00    -0.395 OA
HETATM   24  H   UNK N   1      42.582  43.438  50.292  0.00  0.00     0.210 HD
ENDBRANCH  14  23
TORSDOF 1
ENDMDL
MODEL 3
REMARK VINA RESULT:      -6.1      2.506      3.859
REMARK  1 active torsions:
REMARK  status: ('A' for Active; 'I' for Inactive)
REMARK    1  A    between atoms: C_14  and  O_15 
ROOT
HETATM    1  O   UNK N   1      32.142  48.628  42.276  0.00  0.00    -0.260 OA
HETATM    2  C   UNK N   1      31.849  49.778  42.000  0.00  0.00     0.290 A 
HETATM    3  O   UNK N   1      31.253  50.144  40.850  0.00  0.00    -0.307 OA
HETATM    4  C   UNK N   1      31.076  51.522  40.824  0.00  0.00     0.166 A 
HETATM    5  C   UNK N   1      31.532  51.952  42.186  0.00  0.00    -0.017 A 
HETATM    6  C   UNK N   1      32.029  50.921  42.859  0.00  0.00     0.022 A 
HETATM    7  C   UNK N   1      32.596  50.894  44.250  0.00  0.00     0.055 C 
HETATM    8  C   UNK N   1      31.347  53.344  42.613  0.00  0.00     0.013 C 
HETATM    9  C   UNK N   1      30.417  54.107  41.982  0.00  0.00    -0.074 C 
HETATM   10  C   UNK N   1      30.223  55.541  42.382  0.00  0.00     0.035 C 
HETATM   11  C   UNK N   1      30.375  56.447  41.145  0.00  0.00     0.010 C 
HETATM   12  C   UNK N   1      29.462  56.037  39.940  0.00  0.00     0.005 C 
HETATM   13  C   UNK N   1      27.952  56.575  40.024  0.00  0.00    -0.017 C 
HETATM   14  C   UNK N   1      27.132  56.026  38.810  0.00  0.00     0.126 C 
HETATM   15  C   UNK N   1      27.235  54.495  38.706  0.00  0.00     0.033 C 
HETATM   16  C   UNK N   1      28.689  54.105  38.425  0.00  0.00     0.012 C 
HETATM   17  C   UNK N   1      29.676  54.491  39.571  0.00  0.00    -0.032 C 
HETATM   18  C   UNK N   1      29.507  53.565  40.852  0.00  0.00     0.026 C 
HETATM   19  C   UNK N   1      29.635  51.999  40.669  0.00  0.00     0.047 C 
HETATM   20  C   UNK N   1      31.099  54.315  38.975  0.00  0.00     0.016 C 
HETATM   21  C   UNK N   1      27.180  56.253  41.330  0.00  0.00     0.018 C 
HETATM   22  C   UNK N   1      27.947  58.130  39.922  0.00  0.00     0.018 C 
ENDROOT
BRANCH  14  23
HETATM   23  O   UNK N   1      27.587  56.606  37.609  0.00  0.00    -0.395 OA
HETATM   24  H   UNK N   1      28.415  56.125  37.348  0.00  0.00     0.210 HD
ENDBRANCH  14  23
TORSDOF 1
ENDMDL
MODEL 4
REMARK VINA RESULT:      -5.7      1.777      3.252
REMARK  1 active torsions:
REMARK  status: ('A' for Active; 'I' for Inactive)
REMARK    1  A    between atoms: C_14  and  O_15 
ROOT
HETATM    1  O   UNK N   1      32.339  51.640  44.604  0.00  0.00    -0.260 OA
HETATM    2  C   UNK N   1      31.908  52.452  43.804  0.00  0.00     0.290 A 
HETATM    3  O   UNK N   1      31.513  52.136  42.557  0.00  0.00    -0.307 OA
HETATM    4  C   UNK N   1      31.098  53.281  41.886  0.00  0.00     0.166 A 
HETATM    5  C   UNK N   1      31.172  54.342  42.942  0.00  0.00    -0.017 A 
HETATM    6  C   UNK N   1      31.693  53.853  44.061  0.00  0.00     0.022 A 
HETATM    7  C   UNK N   1      31.949  54.557  45.363  0.00  0.00     0.055 C 
HETATM    8  C   UNK N   1      30.652  55.687  42.665  0.00  0.00     0.013 C 
HETATM    9  C   UNK N   1      29.753  55.849  41.659  0.00  0.00    -0.074 C 
HETATM   10  C   UNK N   1      29.224  57.217  41.338  0.00  0.00     0.035 C 
HETATM   11  C   UNK N   1      29.467  57.527  39.848  0.00  0.00     0.010 C 
HETATM   12  C   UNK N   1      28.919  56.432  38.871  0.00  0.00     0.005 C 
HETATM   13  C   UNK N   1      27.353  56.549  38.537  0.00  0.00    -0.017 C 
HETATM   14  C   UNK N   1      26.921  55.353  37.626  0.00  0.00     0.126 C 
HETATM   15  C   UNK N   1      27.319  54.002  38.243  0.00  0.00     0.033 C 
HETATM   16  C   UNK N   1      28.846  53.916  38.331  0.00  0.00     0.012 C 
HETATM   17  C   UNK N   1      29.482  54.986  39.274  0.00  0.00    -0.032 C 
HETATM   18  C   UNK N   1      29.217  54.671  40.809  0.00  0.00     0.026 C 
HETATM   19  C   UNK N   1      29.661  53.263  41.375  0.00  0.00     0.047 C 
HETATM   20  C   UNK N   1      31.006  54.947  38.982  0.00  0.00     0.016 C 
HETATM   21  C   UNK N   1      26.394  56.618  39.754  0.00  0.00     0.018 C 
HETATM   22  C   UNK N   1      27.088  57.861  37.737  0.00  0.00     0.018 C 
ENDROOT
BRANCH  14  23
HETATM   23  O   UNK N   1      27.507  55.473  36.350  0.00  0.00    -0.395 OA
HETATM   24  H   UNK N   1      26.791  55.306  35.683  0.00  0.00     0.210 HD
ENDBRANCH  14  23
TORSDOF 1
ENDMDL
MODEL 5
REMARK VINA RESULT:      -5.4      3.169      4.716
REMARK  1 active torsions:
REMARK  status: ('A' for Active; 'I' for Inactive)
REMARK    1  A    between atoms: C_14  and  O_15 
ROOT
HETATM    1  O   UNK N   1      29.483  48.971  40.850  0.00  0.00    -0.260 OA
HETATM    2  C   UNK N   1      29.480  50.169  40.624  0.00  0.00     0.290 A 
HETATM    3  O   UNK N   1      28.430  50.828  40.100  0.00  0.00    -0.307 OA
HETATM    4  C   UNK N   1      28.745  52.173  39.940  0.00  0.00     0.166 A 
HETATM    5  C   UNK N   1      30.104  52.282  40.564  0.00  0.00    -0.017 A 
HETATM    6  C   UNK N   1      30.550  51.084  40.926  0.00  0.00     0.022 A 
HETATM    7  C   UNK N   1      31.853  50.728  41.583  0.00  0.00     0.055 C 
HETATM    8  C   UNK N   1      30.724  53.601  40.740  0.00  0.00     0.013 C 
HETATM    9  C   UNK N   1      29.931  54.704  40.741  0.00  0.00    -0.074 C 
HETATM   10  C   UNK N   1      30.541  56.067  40.895  0.00  0.00     0.035 C 
HETATM   11  C   UNK N   1      30.106  56.963  39.718  0.00  0.00     0.010 C 
HETATM   12  C   UNK N   1      28.555  57.024  39.505  0.00  0.00     0.005 C 
HETATM   13  C   UNK N   1      27.785  58.067  40.452  0.00  0.00    -0.017 C 
HETATM   14  C   UNK N   1      26.245  57.967  40.197  0.00  0.00     0.126 C 
HETATM   15  C   UNK N   1      25.743  56.520  40.337  0.00  0.00     0.033 C 
HETATM   16  C   UNK N   1      26.392  55.653  39.255  0.00  0.00     0.012 C 
HETATM   17  C   UNK N   1      27.944  55.547  39.381  0.00  0.00    -0.032 C 
HETATM   18  C   UNK N   1      28.390  54.636  40.604  0.00  0.00     0.026 C 
HETATM   19  C   UNK N   1      27.840  53.155  40.678  0.00  0.00     0.047 C 
HETATM   20  C   UNK N   1      28.431  54.918  38.048  0.00  0.00     0.016 C 
HETATM   21  C   UNK N   1      28.045  57.933  41.975  0.00  0.00     0.018 C 
HETATM   22  C   UNK N   1      28.222  59.519  40.091  0.00  0.00     0.018 C 
ENDROOT
BRANCH  14  23
HETATM   23  O   UNK N   1      25.930  58.446  38.909  0.00  0.00    -0.395 OA
HETATM   24  H   UNK N   1      25.795  59.427  38.988  0.00  0.00     0.210 HD
ENDBRANCH  14  23
TORSDOF 1
ENDMDL
MODEL 6
REMARK VINA RESULT:      -5.3     16.406     20.205
REMARK  1 active torsions:
REMARK  status: ('A' for Active; 'I' for Inactive)
REMARK    1  A    between atoms: C_14  and  O_15 
ROOT
HETATM    1  O   UNK N   1      28.651  51.193  57.351  0.00  0.00    -0.260 OA
HETATM    2  C   UNK N   1      29.044  50.080  57.652  0.00  0.00     0.290 A 
HETATM    3  O   UNK N   1      28.461  49.308  58.589  0.00  0.00    -0.307 OA
HETATM    4  C   UNK N   1      29.156  48.112  58.719  0.00  0.00     0.166 A 
HETATM    5  C   UNK N   1      30.186  48.195  57.633  0.00  0.00    -0.017 A 
HETATM    6  C   UNK N   1      30.142  49.380  57.036  0.00  0.00     0.022 A 
HETATM    7  C   UNK N   1      30.987  49.893  55.905  0.00  0.00     0.055 C 
HETATM    8  C   UNK N   1      31.031  47.031  57.336  0.00  0.00     0.013 C 
HETATM    9  C   UNK N   1      30.610  45.799  57.724  0.00  0.00    -0.074 C 
HETATM   10  C   UNK N   1      31.465  44.594  57.455  0.00  0.00     0.035 C 
HETATM   11  C   UNK N   1      31.725  43.841  58.774  0.00  0.00     0.010 C 
HETATM   12  C   UNK N   1      30.424  43.482  59.570  0.00  0.00     0.005 C 
HETATM   13  C   UNK N   1      29.675  42.151  59.074  0.00  0.00    -0.017 C 
HETATM   14  C   UNK N   1      28.356  41.958  59.890  0.00  0.00     0.126 C 
HETATM   15  C   UNK N   1      27.472  43.215  59.842  0.00  0.00     0.033 C 
HETATM   16  C   UNK N   1      28.205  44.375  60.522  0.00  0.00     0.012 C 
HETATM   17  C   UNK N   1      29.527  44.791  59.802  0.00  0.00    -0.032 C 
HETATM   18  C   UNK N   1      29.257  45.554  58.435  0.00  0.00     0.026 C 
HETATM   19  C   UNK N   1      28.345  46.846  58.463  0.00  0.00     0.047 C 
HETATM   20  C   UNK N   1      30.266  45.729  60.795  0.00  0.00     0.016 C 
HETATM   21  C   UNK N   1      29.339  42.076  57.562  0.00  0.00     0.018 C 
HETATM   22  C   UNK N   1      30.579  40.912  59.351  0.00  0.00     0.018 C 
ENDROOT
BRANCH  14  23
HETATM   23  O   UNK N   1      28.652  41.649  61.233  0.00  0.00    -0.395 OA
HETATM   24  H   UNK N   1      27.867  41.924  61.776  0.00  0.00     0.210 HD
ENDBRANCH  14  23
TORSDOF 1
ENDMDL
MODEL 7
REMARK VINA RESULT:      -5.2     17.639     19.088
REMARK  1 active torsions:
REMARK  status: ('A' for Active; 'I' for Inactive)
REMARK    1  A    between atoms: C_14  and  O_15 
ROOT
HETATM    1  O   UNK N   1      32.600  43.037  56.557  0.00  0.00    -0.260 OA
HETATM    2  C   UNK N   1      31.779  43.783  57.059  0.00  0.00     0.290 A 
HETATM    3  O   UNK N   1      32.057  45.036  57.468  0.00  0.00    -0.307 OA
HETATM    4  C   UNK N   1      30.922  45.619  58.019  0.00  0.00     0.166 A 
HETATM    5  C   UNK N   1      29.857  44.591  57.777  0.00  0.00    -0.017 A 
HETATM    6  C   UNK N   1      30.381  43.491  57.249  0.00  0.00     0.022 A 
HETATM    7  C   UNK N   1      29.687  42.220  56.849  0.00  0.00     0.055 C 
HETATM    8  C   UNK N   1      28.455  44.906  58.077  0.00  0.00     0.013 C 
HETATM    9  C   UNK N   1      28.078  46.209  58.159  0.00  0.00    -0.074 C 
HETATM   10  C   UNK N   1      26.656  46.560  58.488  0.00  0.00     0.035 C 
HETATM   11  C   UNK N   1      26.626  47.496  59.712  0.00  0.00     0.010 C 
HETATM   12  C   UNK N   1      27.534  48.764  59.565  0.00  0.00     0.005 C 
HETATM   13  C   UNK N   1      26.872  49.977  58.747  0.00  0.00    -0.017 C 
HETATM   14  C   UNK N   1      27.909  51.139  58.603  0.00  0.00     0.126 C 
HETATM   15  C   UNK N   1      29.234  50.641  58.001  0.00  0.00     0.033 C 
HETATM   16  C   UNK N   1      29.879  49.637  58.961  0.00  0.00     0.012 C 
HETATM   17  C   UNK N   1      29.032  48.343  59.179  0.00  0.00    -0.032 C 
HETATM   18  C   UNK N   1      29.052  47.386  57.910  0.00  0.00     0.026 C 
HETATM   19  C   UNK N   1      30.452  46.908  57.352  0.00  0.00     0.047 C 
HETATM   20  C   UNK N   1      29.675  47.623  60.395  0.00  0.00     0.016 C 
HETATM   21  C   UNK N   1      26.314  49.632  57.342  0.00  0.00     0.018 C 
HETATM   22  C   UNK N   1      25.654  50.538  59.542  0.00  0.00     0.018 C 
ENDROOT
BRANCH  14  23
HETATM   23  O   UNK N   1      28.160  51.730  59.857  0.00  0.00    -0.395 OA
HETATM   24  H   UNK N   1      28.111  51.007  60.536  0.00  0.00     0.210 HD
ENDBRANCH  14  23
TORSDOF 1
ENDMDL
MODEL 8
REMARK VINA RESULT:      -5.0     17.733     21.198
REMARK  1 active torsions:
REMARK  status: ('A' for Active; 'I' for Inactive)
REMARK    1  A    between atoms: C_14  and  O_15 
ROOT
HETATM    1  O   UNK N   1      28.897  49.440  57.368  0.00  0.00    -0.260 OA
HETATM    2  C   UNK N   1      29.134  48.257  57.538  0.00  0.00     0.290 A 
HETATM    3  O   UNK N   1      30.375  47.733  57.524  0.00  0.00    -0.307 OA
HETATM    4  C   UNK N   1      30.311  46.359  57.722  0.00  0.00     0.166 A 
HETATM    5  C   UNK N   1      28.856  46.118  57.990  0.00  0.00    -0.017 A 
HETATM    6  C   UNK N   1      28.161  47.239  57.836  0.00  0.00     0.022 A 
HETATM    7  C   UNK N   1      26.684  47.457  58.003  0.00  0.00     0.055 C 
HETATM    8  C   UNK N   1      28.401  44.787  58.411  0.00  0.00     0.013 C 
HETATM    9  C   UNK N   1      29.301  43.927  58.955  0.00  0.00    -0.074 C 
HETATM   10  C   UNK N   1      28.868  42.551  59.372  0.00  0.00     0.035 C 
HETATM   11  C   UNK N   1      29.758  41.499  58.682  0.00  0.00     0.010 C 
HETATM   12  C   UNK N   1      31.294  41.729  58.890  0.00  0.00     0.005 C 
HETATM   13  C   UNK N   1      31.878  41.168  60.277  0.00  0.00    -0.017 C 
HETATM   14  C   UNK N   1      33.393  41.537  60.393  0.00  0.00     0.126 C 
HETATM   15  C   UNK N   1      33.624  43.044  60.193  0.00  0.00     0.033 C 
HETATM   16  C   UNK N   1      33.220  43.432  58.768  0.00  0.00     0.012 C 
HETATM   17  C   UNK N   1      31.703  43.220  58.466  0.00  0.00    -0.032 C 
HETATM   18  C   UNK N   1      30.786  44.297  59.190  0.00  0.00     0.026 C 
HETATM   19  C   UNK N   1      31.077  45.829  58.930  0.00  0.00     0.047 C 
HETATM   20  C   UNK N   1      31.560  43.354  56.925  0.00  0.00     0.016 C 
HETATM   21  C   UNK N   1      31.153  41.634  61.566  0.00  0.00     0.018 C 
HETATM   22  C   UNK N   1      31.776  39.613  60.293  0.00  0.00     0.018 C 
ENDROOT
BRANCH  14  23
HETATM   23  O   UNK N   1      34.146  40.819  59.442  0.00  0.00    -0.395 OA
HETATM   24  H   UNK N   1      34.385  39.949  59.855  0.00  0.00     0.210 HD
ENDBRANCH  14  23
TORSDOF 1
ENDMDL
MODEL 9
REMARK VINA RESULT:      -4.9     23.059     24.782
REMARK  1 active torsions:
REMARK  status: ('A' for Active; 'I' for Inactive)
REMARK    1  A    between atoms: C_14  and  O_15 
ROOT
HETATM    1  O   UNK N   1      28.443  46.003  63.796  0.00  0.00    -0.260 OA
HETATM    2  C   UNK N   1      29.622  46.281  63.926  0.00  0.00     0.290 A 
HETATM    3  O   UNK N   1      30.608  45.364  63.959  0.00  0.00    -0.307 OA
HETATM    4  C   UNK N   1      31.834  45.991  64.142  0.00  0.00     0.166 A 
HETATM    5  C   UNK N   1      31.485  47.448  64.089  0.00  0.00    -0.017 A 
HETATM    6  C   UNK N   1      30.169  47.611  64.005  0.00  0.00     0.022 A 
HETATM    7  C   UNK N   1      29.385  48.890  63.929  0.00  0.00     0.055 C 
HETATM    8  C   UNK N   1      32.552  48.456  64.084  0.00  0.00     0.013 C 
HETATM    9  C   UNK N   1      33.803  48.086  63.705  0.00  0.00    -0.074 C 
HETATM   10  C   UNK N   1      34.919  49.091  63.713  0.00  0.00     0.035 C 
HETATM   11  C   UNK N   1      36.085  48.560  64.570  0.00  0.00     0.010 C 
HETATM   12  C   UNK N   1      36.575  47.129  64.161  0.00  0.00     0.005 C 
HETATM   13  C   UNK N   1      37.599  47.094  62.926  0.00  0.00    -0.017 C 
HETATM   14  C   UNK N   1      37.939  45.610  62.570  0.00  0.00     0.126 C 
HETATM   15  C   UNK N   1      36.666  44.779  62.338  0.00  0.00     0.033 C 
HETATM   16  C   UNK N   1      35.863  44.711  63.640  0.00  0.00     0.012 C 
HETATM   17  C   UNK N   1      35.346  46.100  64.132  0.00  0.00    -0.032 C 
HETATM   18  C   UNK N   1      34.154  46.652  63.238  0.00  0.00     0.026 C 
HETATM   19  C   UNK N   1      32.871  45.745  63.051  0.00  0.00     0.047 C 
HETATM   20  C   UNK N   1      34.854  45.871  65.587  0.00  0.00     0.016 C 
HETATM   21  C   UNK N   1      37.141  47.822  61.635  0.00  0.00     0.018 C 
HETATM   22  C   UNK N   1      38.932  47.791  63.334  0.00  0.00     0.018 C 
ENDROOT
BRANCH  14  23
HETATM   23  O   UNK N   1      38.698  45.020  63.601  0.00  0.00    -0.395 OA
HETATM   24  H   UNK N   1      38.478  45.505  64.439  0.00  0.00     0.210 HD
ENDBRANCH  14  23
TORSDOF 1
ENDMDL
