MODEL 1
REMARK VINA RESULT:      -7.3      0.000      0.000
REMARK  9 active torsions:
REMARK  status: ('A' for Active; 'I' for Inactive)
REMARK    1  A    between atoms: C_3  and  O_4 
REMARK    2  A    between atoms: C_7  and  C_8 
REMARK    3  A    between atoms: C_9  and  C_10 
REMARK    4  A    between atoms: C_10  and  O_11 
REMARK    5  A    between atoms: C_15  and  C_27 
REMARK    6  A    between atoms: C_16  and  C_17 
REMARK    7  A    between atoms: C_19  and  O_20 
REMARK    8  A    between atoms: C_22  and  O_23 
REMARK    9  A    between atoms: C_27  and  O_28 
ROOT
HETATM    1  O   UNK N   1      42.175  46.566  47.462  0.00  0.00    -0.337 OA
HETATM    2  C   UNK N   1      41.836  47.604  46.693  0.00  0.00     0.109 A 
HETATM    3  C   UNK N   1      42.703  48.578  46.203  0.00  0.00     0.100 A 
HETATM    4  C   UNK N   1      42.173  49.604  45.402  0.00  0.00     0.051 A 
HETATM    5  C   UNK N   1      40.799  49.620  45.075  0.00  0.00    -0.033 A 
HETATM    6  C   UNK N   1      39.945  48.624  45.610  0.00  0.00     0.022 A 
HETATM    7  C   UNK N   1      40.503  47.628  46.421  0.00  0.00    -0.012 A 
HETATM    8  C   UNK N   1      39.839  46.546  47.203  0.00  0.00     0.079 C 
HETATM    9  C   UNK N   1      41.101  45.701  47.598  0.00  0.00     0.172 C 
ENDROOT
BRANCH   9  10
HETATM   10  C   UNK N   1      41.025  45.057  48.960  0.00  0.00    -0.025 A 
HETATM   11  C   UNK N   1      41.742  45.590  50.042  0.00  0.00     0.049 A 
HETATM   12  C   UNK N   1      41.666  44.990  51.318  0.00  0.00     0.101 A 
HETATM   13  C   UNK N   1      40.865  43.842  51.494  0.00  0.00     0.099 A 
HETATM   14  C   UNK N   1      40.159  43.313  50.410  0.00  0.00     0.040 A 
HETATM   15  C   UNK N   1      40.237  43.912  49.152  0.00  0.00     0.012 A 
BRANCH  12  16
HETATM   16  O   UNK N   1      42.348  45.489  52.386  0.00  0.00    -0.353 OA
HETATM   17  C   UNK N   1      41.774  45.887  53.576  0.00  0.00     0.210 C 
ENDBRANCH  12  16
BRANCH  13  18
HETATM   18  O   UNK N   1      40.763  43.239  52.697  0.00  0.00    -0.358 OA
HETATM   19  H   UNK N   1      40.089  42.572  52.888  0.00  0.00     0.218 HD
ENDBRANCH  13  18
ENDBRANCH   9  10
BRANCH   8  20
HETATM   20  C   UNK N   1      38.750  45.736  46.496  0.00  0.00     0.176 C 
BRANCH  20  21
HETATM   21  O   UNK N   1      39.325  44.715  45.723  0.00  0.00    -0.400 OA
HETATM   22  H   UNK N   1      38.682  44.506  44.995  0.00  0.00     0.209 HD
ENDBRANCH  20  21
ENDBRANCH   8  20
BRANCH   3  23
HETATM   23  O   UNK N   1      44.019  48.527  46.493  0.00  0.00    -0.358 OA
HETATM   24  H   UNK N   1      44.692  48.706  45.820  0.00  0.00     0.218 HD
ENDBRANCH   3  23
BRANCH   5  25
HETATM   25  C   UNK N   1      40.290  50.716  44.217  0.00  0.00     0.009 C 
HETATM   26  C   UNK N   1      39.433  50.567  43.186  0.00  0.00    -0.000 C 
BRANCH  26  27
HETATM   27  C   UNK N   1      38.922  49.249  42.666  0.00  0.00     0.194 C 
BRANCH  27  28
HETATM   28  O   UNK N   1      37.645  49.424  42.098  0.00  0.00    -0.392 OA
HETATM   29  C   UNK N   1      36.763  48.471  42.652  0.00  0.00     0.201 C 
ENDBRANCH  27  28
ENDBRANCH  26  27
ENDBRANCH   5  25
TORSDOF 9
ENDMDL
MODEL 2
REMARK VINA RESULT:      -7.1      1.560      2.394
REMARK  9 active torsions:
REMARK  status: ('A' for Active; 'I' for Inactive)
REMARK    1  A    between atoms: C_3  and  O_4 
REMARK    2  A    between atoms: C_7  and  C_8 
REMARK    3  A    between atoms: C_9  and  C_10 
REMARK    4  A    between atoms: C_10  and  O_11 
REMARK    5  A    between atoms: C_15  and  C_27 
REMARK    6  A    between atoms: C_16  and  C_17 
REMARK    7  A    between atoms: C_19  and  O_20 
REMARK    8  A    between atoms: C_22  and  O_23 
REMARK    9  A    between atoms: C_27  and  O_28 
ROOT
HETATM    1  O   UNK N   1      42.135  46.336  48.168  0.00  0.00    -0.337 OA
HETATM    2  C   UNK N   1      41.502  46.997  47.195  0.00  0.00     0.109 A 
HETATM    3  C   UNK N   1      42.050  47.997  46.394  0.00  0.00     0.100 A 
HETATM    4  C   UNK N   1      41.238  48.588  45.411  0.00  0.00     0.051 A 
HETATM    5  C   UNK N   1      39.910  48.147  45.220  0.00  0.00    -0.033 A 
HETATM    6  C   UNK N   1      39.382  47.143  46.069  0.00  0.00     0.022 A 
HETATM    7  C   UNK N   1      40.212  46.590  47.051  0.00  0.00    -0.012 A 
HETATM    8  C   UNK N   1      39.895  45.623  48.140  0.00  0.00     0.079 C 
HETATM    9  C   UNK N   1      41.351  45.285  48.619  0.00  0.00     0.172 C 
ENDROOT
BRANCH   9  10
HETATM   10  C   UNK N   1      41.484  45.038  50.101  0.00  0.00    -0.025 A 
HETATM   11  C   UNK N   1      40.864  43.931  50.699  0.00  0.00     0.049 A 
HETATM   12  C   UNK N   1      40.994  43.698  52.086  0.00  0.00     0.101 A 
HETATM   13  C   UNK N   1      41.752  44.595  52.867  0.00  0.00     0.099 A 
HETATM   14  C   UNK N   1      42.363  45.699  52.266  0.00  0.00     0.040 A 
HETATM   15  C   UNK N   1      42.231  45.922  50.895  0.00  0.00     0.012 A 
BRANCH  12  16
HETATM   16  O   UNK N   1      40.406  42.630  52.691  0.00  0.00    -0.353 OA
HETATM   17  C   UNK N   1      39.261  42.684  53.458  0.00  0.00     0.210 C 
ENDBRANCH  12  16
BRANCH  13  18
HETATM   18  O   UNK N   1      41.904  44.408  54.195  0.00  0.00    -0.358 OA
HETATM   19  H   UNK N   1      41.446  43.703  54.676  0.00  0.00     0.218 HD
ENDBRANCH  13  18
ENDBRANCH   9  10
BRANCH   8  20
HETATM   20  C   UNK N   1      39.066  44.391  47.768  0.00  0.00     0.176 C 
BRANCH  20  21
HETATM   21  O   UNK N   1      37.875  44.362  48.509  0.00  0.00    -0.400 OA
HETATM   22  H   UNK N   1      37.147  44.118  47.878  0.00  0.00     0.209 HD
ENDBRANCH  20  21
ENDBRANCH   8  20
BRANCH   3  23
HETATM   23  O   UNK N   1      43.332  48.380  46.564  0.00  0.00    -0.358 OA
HETATM   24  H   UNK N   1      43.796  48.903  45.895  0.00  0.00     0.218 HD
ENDBRANCH   3  23
BRANCH   5  25
HETATM   25  C   UNK N   1      39.096  48.793  44.162  0.00  0.00     0.009 C 
HETATM   26  C   UNK N   1      39.199  50.080  43.774  0.00  0.00    -0.000 C 
BRANCH  26  27
HETATM   27  C   UNK N   1      40.091  51.111  44.415  0.00  0.00     0.194 C 
BRANCH  27  28
HETATM   28  O   UNK N   1      40.421  52.106  43.474  0.00  0.00    -0.392 OA
HETATM   29  C   UNK N   1      39.700  51.868  42.283  0.00  0.00     0.201 C 
ENDBRANCH  27  28
ENDBRANCH  26  27
ENDBRANCH   5  25
TORSDOF 9
ENDMDL
MODEL 3
REMARK VINA RESULT:      -6.7      1.823      2.369
REMARK  9 active torsions:
REMARK  status: ('A' for Active; 'I' for Inactive)
REMARK    1  A    between atoms: C_3  and  O_4 
REMARK    2  A    between atoms: C_7  and  C_8 
REMARK    3  A    between atoms: C_9  and  C_10 
REMARK    4  A    between atoms: C_10  and  O_11 
REMARK    5  A    between atoms: C_15  and  C_27 
REMARK    6  A    between atoms: C_16  and  C_17 
REMARK    7  A    between atoms: C_19  and  O_20 
REMARK    8  A    between atoms: C_22  and  O_23 
REMARK    9  A    between atoms: C_27  and  O_28 
ROOT
HETATM    1  O   UNK N   1      40.065  48.265  47.873  0.00  0.00    -0.337 OA
HETATM    2  C   UNK N   1      39.667  48.745  46.692  0.00  0.00     0.109 A 
HETATM    3  C   UNK N   1      38.956  49.925  46.485  0.00  0.00     0.100 A 
HETATM    4  C   UNK N   1      38.619  50.283  45.168  0.00  0.00     0.051 A 
HETATM    5  C   UNK N   1      39.027  49.478  44.082  0.00  0.00    -0.033 A 
HETATM    6  C   UNK N   1      39.730  48.273  44.334  0.00  0.00     0.022 A 
HETATM    7  C   UNK N   1      40.032  47.938  45.659  0.00  0.00    -0.012 A 
HETATM    8  C   UNK N   1      40.642  46.698  46.218  0.00  0.00     0.079 C 
HETATM    9  C   UNK N   1      40.908  47.180  47.688  0.00  0.00     0.172 C 
ENDROOT
BRANCH   9  10
HETATM   10  C   UNK N   1      40.742  46.112  48.741  0.00  0.00    -0.025 A 
HETATM   11  C   UNK N   1      41.588  46.076  49.860  0.00  0.00     0.049 A 
HETATM   12  C   UNK N   1      41.428  45.079  50.847  0.00  0.00     0.101 A 
HETATM   13  C   UNK N   1      40.411  44.114  50.694  0.00  0.00     0.099 A 
HETATM   14  C   UNK N   1      39.576  44.152  49.573  0.00  0.00     0.040 A 
HETATM   15  C   UNK N   1      39.739  45.141  48.602  0.00  0.00     0.012 A 
BRANCH  12  16
HETATM   16  O   UNK N   1      42.231  45.023  51.944  0.00  0.00    -0.353 OA
HETATM   17  C   UNK N   1      41.917  45.541  53.184  0.00  0.00     0.210 C 
ENDBRANCH  12  16
BRANCH  13  18
HETATM   18  O   UNK N   1      40.223  43.145  51.615  0.00  0.00    -0.358 OA
HETATM   19  H   UNK N   1      40.805  42.374  51.683  0.00  0.00     0.218 HD
ENDBRANCH  13  18
ENDBRANCH   9  10
BRANCH   8  20
HETATM   20  C   UNK N   1      41.885  46.148  45.515  0.00  0.00     0.176 C 
BRANCH  20  21
HETATM   21  O   UNK N   1      41.519  45.199  44.548  0.00  0.00    -0.400 OA
HETATM   22  H   UNK N   1      42.175  44.455  44.609  0.00  0.00     0.209 HD
ENDBRANCH  20  21
ENDBRANCH   8  20
BRANCH   3  23
HETATM   23  O   UNK N   1      38.607  50.702  47.531  0.00  0.00    -0.358 OA
HETATM   24  H   UNK N   1      37.874  51.331  47.470  0.00  0.00     0.218 HD
ENDBRANCH   3  23
BRANCH   5  25
HETATM   25  C   UNK N   1      38.659  49.902  42.710  0.00  0.00     0.009 C 
HETATM   26  C   UNK N   1      37.497  49.615  42.089  0.00  0.00    -0.000 C 
BRANCH  26  27
HETATM   27  C   UNK N   1      36.412  48.730  42.645  0.00  0.00     0.194 C 
BRANCH  27  28
HETATM   28  O   UNK N   1      35.363  49.523  43.151  0.00  0.00    -0.392 OA
HETATM   29  C   UNK N   1      34.203  48.727  43.268  0.00  0.00     0.201 C 
ENDBRANCH  27  28
ENDBRANCH  26  27
ENDBRANCH   5  25
TORSDOF 9
ENDMDL
MODEL 4
REMARK VINA RESULT:      -6.6      1.403      8.051
REMARK  9 active torsions:
REMARK  status: ('A' for Active; 'I' for Inactive)
REMARK    1  A    between atoms: C_3  and  O_4 
REMARK    2  A    between atoms: C_7  and  C_8 
REMARK    3  A    between atoms: C_9  and  C_10 
REMARK    4  A    between atoms: C_10  and  O_11 
REMARK    5  A    between atoms: C_15  and  C_27 
REMARK    6  A    between atoms: C_16  and  C_17 
REMARK    7  A    between atoms: C_19  and  O_20 
REMARK    8  A    between atoms: C_22  and  O_23 
REMARK    9  A    between atoms: C_27  and  O_28 
ROOT
HETATM    1  O   UNK N   1      40.765  48.405  47.402  0.00  0.00    -0.337 OA
HETATM    2  C   UNK N   1      41.151  47.312  48.063  0.00  0.00     0.109 A 
HETATM    3  C   UNK N   1      42.196  47.236  48.982  0.00  0.00     0.100 A 
HETATM    4  C   UNK N   1      42.465  45.998  49.590  0.00  0.00     0.051 A 
HETATM    5  C   UNK N   1      41.667  44.869  49.299  0.00  0.00    -0.033 A 
HETATM    6  C   UNK N   1      40.627  44.980  48.343  0.00  0.00     0.022 A 
HETATM    7  C   UNK N   1      40.399  46.224  47.742  0.00  0.00    -0.012 A 
HETATM    8  C   UNK N   1      39.472  46.598  46.636  0.00  0.00     0.079 C 
HETATM    9  C   UNK N   1      39.580  48.161  46.725  0.00  0.00     0.172 C 
ENDROOT
BRANCH   9  10
HETATM   10  C   UNK N   1      39.496  48.874  45.398  0.00  0.00    -0.025 A 
HETATM   11  C   UNK N   1      38.500  48.538  44.469  0.00  0.00     0.049 A 
HETATM   12  C   UNK N   1      38.419  49.209  43.230  0.00  0.00     0.101 A 
HETATM   13  C   UNK N   1      39.356  50.221  42.931  0.00  0.00     0.099 A 
HETATM   14  C   UNK N   1      40.350  50.546  43.859  0.00  0.00     0.040 A 
HETATM   15  C   UNK N   1      40.423  49.879  45.082  0.00  0.00     0.012 A 
BRANCH  12  16
HETATM   16  O   UNK N   1      37.460  48.906  42.312  0.00  0.00    -0.353 OA
HETATM   17  C   UNK N   1      36.371  48.091  42.543  0.00  0.00     0.210 C 
ENDBRANCH  12  16
BRANCH  13  18
HETATM   18  O   UNK N   1      39.313  50.888  41.759  0.00  0.00    -0.358 OA
HETATM   19  H   UNK N   1      38.895  50.521  40.967  0.00  0.00     0.218 HD
ENDBRANCH  13  18
ENDBRANCH   9  10
BRANCH   8  20
HETATM   20  C   UNK N   1      38.036  46.073  46.716  0.00  0.00     0.176 C 
BRANCH  20  21
HETATM   21  O   UNK N   1      38.030  44.726  47.111  0.00  0.00    -0.400 OA
HETATM   22  H   UNK N   1      37.123  44.371  46.915  0.00  0.00     0.209 HD
ENDBRANCH  20  21
ENDBRANCH   8  20
BRANCH   3  23
HETATM   23  O   UNK N   1      42.924  48.332  49.277  0.00  0.00    -0.358 OA
HETATM   24  H   UNK N   1      43.425  48.398  50.103  0.00  0.00     0.218 HD
ENDBRANCH   3  23
BRANCH   5  25
HETATM   25  C   UNK N   1      41.983  43.588  49.975  0.00  0.00     0.009 C 
HETATM   26  C   UNK N   1      41.431  43.155  51.127  0.00  0.00    -0.000 C 
BRANCH  26  27
HETATM   27  C   UNK N   1      40.471  43.945  51.978  0.00  0.00     0.194 C 
BRANCH  27  28
HETATM   28  O   UNK N   1      41.020  44.137  53.262  0.00  0.00    -0.392 OA
HETATM   29  C   UNK N   1      41.780  45.327  53.261  0.00  0.00     0.201 C 
ENDBRANCH  27  28
ENDBRANCH  26  27
ENDBRANCH   5  25
TORSDOF 9
ENDMDL
MODEL 5
REMARK VINA RESULT:      -6.2      1.949      2.625
REMARK  9 active torsions:
REMARK  status: ('A' for Active; 'I' for Inactive)
REMARK    1  A    between atoms: C_3  and  O_4 
REMARK    2  A    between atoms: C_7  and  C_8 
REMARK    3  A    between atoms: C_9  and  C_10 
REMARK    4  A    between atoms: C_10  and  O_11 
REMARK    5  A    between atoms: C_15  and  C_27 
REMARK    6  A    between atoms: C_16  and  C_17 
REMARK    7  A    between atoms: C_19  and  O_20 
REMARK    8  A    between atoms: C_22  and  O_23 
REMARK    9  A    between atoms: C_27  and  O_28 
ROOT
HETATM    1  O   UNK N   1      40.074  48.230  47.819  0.00  0.00    -0.337 OA
HETATM    2  C   UNK N   1      39.572  48.700  46.675  0.00  0.00     0.109 A 
HETATM    3  C   UNK N   1      38.884  49.901  46.514  0.00  0.00     0.100 A 
HETATM    4  C   UNK N   1      38.424  50.243  45.230  0.00  0.00     0.051 A 
HETATM    5  C   UNK N   1      38.689  49.401  44.128  0.00  0.00    -0.033 A 
HETATM    6  C   UNK N   1      39.373  48.177  44.335  0.00  0.00     0.022 A 
HETATM    7  C   UNK N   1      39.799  47.859  45.629  0.00  0.00    -0.012 A 
HETATM    8  C   UNK N   1      40.422  46.610  46.152  0.00  0.00     0.079 C 
HETATM    9  C   UNK N   1      40.857  47.112  47.574  0.00  0.00     0.172 C 
ENDROOT
BRANCH   9  10
HETATM   10  C   UNK N   1      40.766  46.073  48.664  0.00  0.00    -0.025 A 
HETATM   11  C   UNK N   1      41.614  46.133  49.780  0.00  0.00     0.049 A 
HETATM   12  C   UNK N   1      41.524  45.163  50.802  0.00  0.00     0.101 A 
HETATM   13  C   UNK N   1      40.574  44.126  50.687  0.00  0.00     0.099 A 
HETATM   14  C   UNK N   1      39.737  44.069  49.569  0.00  0.00     0.040 A 
HETATM   15  C   UNK N   1      39.830  45.032  48.564  0.00  0.00     0.012 A 
BRANCH  12  16
HETATM   16  O   UNK N   1      42.331  45.200  51.897  0.00  0.00    -0.353 OA
HETATM   17  C   UNK N   1      41.931  45.570  53.165  0.00  0.00     0.210 C 
ENDBRANCH  12  16
BRANCH  13  18
HETATM   18  O   UNK N   1      40.454  43.180  51.642  0.00  0.00    -0.358 OA
HETATM   19  H   UNK N   1      41.193  42.921  52.211  0.00  0.00     0.218 HD
ENDBRANCH  13  18
ENDBRANCH   9  10
BRANCH   8  20
HETATM   20  C   UNK N   1      41.566  46.000  45.337  0.00  0.00     0.176 C 
BRANCH  20  21
HETATM   21  O   UNK N   1      41.227  44.707  44.912  0.00  0.00    -0.400 OA
HETATM   22  H   UNK N   1      40.244  44.614  45.021  0.00  0.00     0.209 HD
ENDBRANCH  20  21
ENDBRANCH   8  20
BRANCH   3  23
HETATM   23  O   UNK N   1      38.672  50.711  47.571  0.00  0.00    -0.358 OA
HETATM   24  H   UNK N   1      37.823  50.723  48.036  0.00  0.00     0.218 HD
ENDBRANCH   3  23
BRANCH   5  25
HETATM   25  C   UNK N   1      38.193  49.810  42.791  0.00  0.00     0.009 C 
HETATM   26  C   UNK N   1      38.854  50.602  41.922  0.00  0.00    -0.000 C 
BRANCH  26  27
HETATM   27  C   UNK N   1      40.166  51.288  42.199  0.00  0.00     0.194 C 
BRANCH  27  28
HETATM   28  O   UNK N   1      39.977  52.312  43.148  0.00  0.00    -0.392 OA
HETATM   29  C   UNK N   1      40.006  53.560  42.487  0.00  0.00     0.201 C 
ENDBRANCH  27  28
ENDBRANCH  26  27
ENDBRANCH   5  25
TORSDOF 9
ENDMDL
MODEL 6
REMARK VINA RESULT:      -6.1      9.796     15.113
REMARK  9 active torsions:
REMARK  status: ('A' for Active; 'I' for Inactive)
REMARK    1  A    between atoms: C_3  and  O_4 
REMARK    2  A    between atoms: C_7  and  C_8 
REMARK    3  A    between atoms: C_9  and  C_10 
REMARK    4  A    between atoms: C_10  and  O_11 
REMARK    5  A    between atoms: C_15  and  C_27 
REMARK    6  A    between atoms: C_16  and  C_17 
REMARK    7  A    between atoms: C_19  and  O_20 
REMARK    8  A    between atoms: C_22  and  O_23 
REMARK    9  A    between atoms: C_27  and  O_28 
ROOT
HETATM    1  O   UNK N   1      28.728  54.187  41.615  0.00  0.00    -0.337 OA
HETATM    2  C   UNK N   1      27.963  53.554  40.722  0.00  0.00     0.109 A 
HETATM    3  C   UNK N   1      26.571  53.507  40.723  0.00  0.00     0.100 A 
HETATM    4  C   UNK N   1      25.924  52.793  39.700  0.00  0.00     0.051 A 
HETATM    5  C   UNK N   1      26.674  52.171  38.677  0.00  0.00    -0.033 A 
HETATM    6  C   UNK N   1      28.089  52.223  38.722  0.00  0.00     0.022 A 
HETATM    7  C   UNK N   1      28.701  52.926  39.767  0.00  0.00    -0.012 A 
HETATM    8  C   UNK N   1      30.143  53.043  40.127  0.00  0.00     0.079 C 
HETATM    9  C   UNK N   1      30.050  54.186  41.198  0.00  0.00     0.172 C 
ENDROOT
BRANCH   9  10
HETATM   10  C   UNK N   1      31.032  54.062  42.337  0.00  0.00    -0.025 A 
HETATM   11  C   UNK N   1      31.470  52.801  42.768  0.00  0.00     0.049 A 
HETATM   12  C   UNK N   1      32.393  52.687  43.830  0.00  0.00     0.101 A 
HETATM   13  C   UNK N   1      32.869  53.856  44.459  0.00  0.00     0.099 A 
HETATM   14  C   UNK N   1      32.423  55.110  44.029  0.00  0.00     0.040 A 
HETATM   15  C   UNK N   1      31.512  55.215  42.978  0.00  0.00     0.012 A 
BRANCH  12  16
HETATM   16  O   UNK N   1      32.838  51.476  44.265  0.00  0.00    -0.353 OA
HETATM   17  C   UNK N   1      33.872  50.760  43.697  0.00  0.00     0.210 C 
ENDBRANCH  12  16
BRANCH  13  18
HETATM   18  O   UNK N   1      33.753  53.792  45.477  0.00  0.00    -0.358 OA
HETATM   19  H   UNK N   1      34.520  54.379  45.536  0.00  0.00     0.218 HD
ENDBRANCH  13  18
ENDBRANCH   9  10
BRANCH   8  20
HETATM   20  C   UNK N   1      31.128  53.339  38.993  0.00  0.00     0.176 C 
BRANCH  20  21
HETATM   21  O   UNK N   1      31.082  54.698  38.648  0.00  0.00    -0.400 OA
HETATM   22  H   UNK N   1      30.947  55.207  39.490  0.00  0.00     0.209 HD
ENDBRANCH  20  21
ENDBRANCH   8  20
BRANCH   3  23
HETATM   23  O   UNK N   1      25.869  54.138  41.686  0.00  0.00    -0.358 OA
HETATM   24  H   UNK N   1      26.129  55.013  42.010  0.00  0.00     0.218 HD
ENDBRANCH   3  23
BRANCH   5  25
HETATM   25  C   UNK N   1      25.946  51.440  37.612  0.00  0.00     0.009 C 
HETATM   26  C   UNK N   1      25.309  50.261  37.769  0.00  0.00    -0.000 C 
BRANCH  26  27
HETATM   27  C   UNK N   1      25.310  49.436  39.029  0.00  0.00     0.194 C 
BRANCH  27  28
HETATM   28  O   UNK N   1      25.611  48.095  38.719  0.00  0.00    -0.392 OA
HETATM   29  C   UNK N   1      24.757  47.662  37.681  0.00  0.00     0.201 C 
ENDBRANCH  27  28
ENDBRANCH  26  27
ENDBRANCH   5  25
TORSDOF 9
ENDMDL
MODEL 7
REMARK VINA RESULT:      -6.0      1.419      2.366
REMARK  9 active torsions:
REMARK  status: ('A' for Active; 'I' for Inactive)
REMARK    1  A    between atoms: C_3  and  O_4 
REMARK    2  A    between atoms: C_7  and  C_8 
REMARK    3  A    between atoms: C_9  and  C_10 
REMARK    4  A    between atoms: C_10  and  O_11 
REMARK    5  A    between atoms: C_15  and  C_27 
REMARK    6  A    between atoms: C_16  and  C_17 
REMARK    7  A    between atoms: C_19  and  O_20 
REMARK    8  A    between atoms: C_22  and  O_23 
REMARK    9  A    between atoms: C_27  and  O_28 
ROOT
HETATM    1  O   UNK N   1      41.564  47.631  46.551  0.00  0.00    -0.337 OA
HETATM    2  C   UNK N   1      40.747  48.297  45.732  0.00  0.00     0.109 A 
HETATM    3  C   UNK N   1      41.112  49.332  44.874  0.00  0.00     0.100 A 
HETATM    4  C   UNK N   1      40.118  49.923  44.076  0.00  0.00     0.051 A 
HETATM    5  C   UNK N   1      38.789  49.448  44.121  0.00  0.00    -0.033 A 
HETATM    6  C   UNK N   1      38.451  48.408  45.021  0.00  0.00     0.022 A 
HETATM    7  C   UNK N   1      39.463  47.856  45.816  0.00  0.00    -0.012 A 
HETATM    8  C   UNK N   1      39.377  46.853  46.916  0.00  0.00     0.079 C 
HETATM    9  C   UNK N   1      40.904  46.547  47.107  0.00  0.00     0.172 C 
ENDROOT
BRANCH   9  10
HETATM   10  C   UNK N   1      41.316  46.267  48.532  0.00  0.00    -0.025 A 
HETATM   11  C   UNK N   1      40.521  45.459  49.359  0.00  0.00     0.049 A 
HETATM   12  C   UNK N   1      40.911  45.194  50.690  0.00  0.00     0.101 A 
HETATM   13  C   UNK N   1      42.108  45.754  51.183  0.00  0.00     0.099 A 
HETATM   14  C   UNK N   1      42.892  46.564  50.355  0.00  0.00     0.040 A 
HETATM   15  C   UNK N   1      42.501  46.820  49.040  0.00  0.00     0.012 A 
BRANCH  12  16
HETATM   16  O   UNK N   1      40.161  44.410  51.513  0.00  0.00    -0.353 OA
HETATM   17  C   UNK N   1      40.316  43.048  51.668  0.00  0.00     0.210 C 
ENDBRANCH  12  16
BRANCH  13  18
HETATM   18  O   UNK N   1      42.518  45.524  52.448  0.00  0.00    -0.358 OA
HETATM   19  H   UNK N   1      41.908  45.526  53.200  0.00  0.00     0.218 HD
ENDBRANCH  13  18
ENDBRANCH   9  10
BRANCH   8  20
HETATM   20  C   UNK N   1      38.523  45.607  46.666  0.00  0.00     0.176 C 
BRANCH  20  21
HETATM   21  O   UNK N   1      39.226  44.685  45.876  0.00  0.00    -0.400 OA
HETATM   22  H   UNK N   1      38.839  43.789  46.063  0.00  0.00     0.209 HD
ENDBRANCH  20  21
ENDBRANCH   8  20
BRANCH   3  23
HETATM   23  O   UNK N   1      42.394  49.748  44.816  0.00  0.00    -0.358 OA
HETATM   24  H   UNK N   1      43.091  49.308  45.324  0.00  0.00     0.218 HD
ENDBRANCH   3  23
BRANCH   5  25
HETATM   25  C   UNK N   1      37.777  50.096  43.251  0.00  0.00     0.009 C 
HETATM   26  C   UNK N   1      36.688  49.490  42.734  0.00  0.00    -0.000 C 
BRANCH  26  27
HETATM   27  C   UNK N   1      36.364  48.026  42.871  0.00  0.00     0.194 C 
BRANCH  27  28
HETATM   28  O   UNK N   1      34.968  47.840  42.819  0.00  0.00    -0.392 OA
HETATM   29  C   UNK N   1      34.336  48.947  43.427  0.00  0.00     0.201 C 
ENDBRANCH  27  28
ENDBRANCH  26  27
ENDBRANCH   5  25
TORSDOF 9
ENDMDL
MODEL 8
REMARK VINA RESULT:      -5.7      8.807     14.993
REMARK  9 active torsions:
REMARK  status: ('A' for Active; 'I' for Inactive)
REMARK    1  A    between atoms: C_3  and  O_4 
REMARK    2  A    between atoms: C_7  and  C_8 
REMARK    3  A    between atoms: C_9  and  C_10 
REMARK    4  A    between atoms: C_10  and  O_11 
REMARK    5  A    between atoms: C_15  and  C_27 
REMARK    6  A    between atoms: C_16  and  C_17 
REMARK    7  A    between atoms: C_19  and  O_20 
REMARK    8  A    between atoms: C_22  and  O_23 
REMARK    9  A    between atoms: C_27  and  O_28 
ROOT
HETATM    1  O   UNK N   1      30.542  54.328  42.745  0.00  0.00    -0.337 OA
HETATM    2  C   UNK N   1      31.226  53.207  42.984  0.00  0.00     0.109 A 
HETATM    3  C   UNK N   1      31.953  52.921  44.138  0.00  0.00     0.100 A 
HETATM    4  C   UNK N   1      32.615  51.684  44.224  0.00  0.00     0.051 A 
HETATM    5  C   UNK N   1      32.511  50.743  43.176  0.00  0.00    -0.033 A 
HETATM    6  C   UNK N   1      31.781  51.079  42.009  0.00  0.00     0.022 A 
HETATM    7  C   UNK N   1      31.150  52.327  41.949  0.00  0.00    -0.012 A 
HETATM    8  C   UNK N   1      30.430  52.983  40.821  0.00  0.00     0.079 C 
HETATM    9  C   UNK N   1      29.787  54.190  41.591  0.00  0.00     0.172 C 
ENDROOT
BRANCH   9  10
HETATM   10  C   UNK N   1      29.686  55.465  40.790  0.00  0.00    -0.025 A 
HETATM   11  C   UNK N   1      29.173  56.634  41.372  0.00  0.00     0.049 A 
HETATM   12  C   UNK N   1      29.084  57.828  40.624  0.00  0.00     0.101 A 
HETATM   13  C   UNK N   1      29.514  57.833  39.280  0.00  0.00     0.099 A 
HETATM   14  C   UNK N   1      30.018  56.663  38.705  0.00  0.00     0.040 A 
HETATM   15  C   UNK N   1      30.104  55.487  39.451  0.00  0.00     0.012 A 
BRANCH  12  16
HETATM   16  O   UNK N   1      28.594  58.977  41.164  0.00  0.00    -0.353 OA
HETATM   17  C   UNK N   1      27.714  59.042  42.225  0.00  0.00     0.210 C 
ENDBRANCH  12  16
BRANCH  13  18
HETATM   18  O   UNK N   1      29.448  58.953  38.530  0.00  0.00    -0.358 OA
HETATM   19  H   UNK N   1      30.016  59.097  37.760  0.00  0.00     0.218 HD
ENDBRANCH  13  18
ENDBRANCH   9  10
BRANCH   8  20
HETATM   20  C   UNK N   1      29.417  52.135  40.046  0.00  0.00     0.176 C 
BRANCH  20  21
HETATM   21  O   UNK N   1      28.122  52.347  40.542  0.00  0.00    -0.400 OA
HETATM   22  H   UNK N   1      27.791  53.191  40.135  0.00  0.00     0.209 HD
ENDBRANCH  20  21
ENDBRANCH   8  20
BRANCH   3  23
HETATM   23  O   UNK N   1      32.010  53.816  45.146  0.00  0.00    -0.358 OA
HETATM   24  H   UNK N   1      31.208  54.136  45.583  0.00  0.00     0.218 HD
ENDBRANCH   3  23
BRANCH   5  25
HETATM   25  C   UNK N   1      33.218  49.447  43.318  0.00  0.00     0.009 C 
HETATM   26  C   UNK N   1      34.556  49.286  43.347  0.00  0.00    -0.000 C 
BRANCH  26  27
HETATM   27  C   UNK N   1      35.566  50.384  43.143  0.00  0.00     0.194 C 
BRANCH  27  28
HETATM   28  O   UNK N   1      36.865  49.838  43.120  0.00  0.00    -0.392 OA
HETATM   29  C   UNK N   1      36.798  48.517  42.627  0.00  0.00     0.201 C 
ENDBRANCH  27  28
ENDBRANCH  26  27
ENDBRANCH   5  25
TORSDOF 9
ENDMDL
MODEL 9
REMARK VINA RESULT:      -5.6     13.399     16.102
REMARK  9 active torsions:
REMARK  status: ('A' for Active; 'I' for Inactive)
REMARK    1  A    between atoms: C_3  and  O_4 
REMARK    2  A    between atoms: C_7  and  C_8 
REMARK    3  A    between atoms: C_9  and  C_10 
REMARK    4  A    between atoms: C_10  and  O_11 
REMARK    5  A    between atoms: C_15  and  C_27 
REMARK    6  A    between atoms: C_16  and  C_17 
REMARK    7  A    between atoms: C_19  and  O_20 
REMARK    8  A    between atoms: C_22  and  O_23 
REMARK    9  A    between atoms: C_27  and  O_28 
ROOT
HETATM    1  O   UNK N   1      30.743  45.796  58.530  0.00  0.00    -0.337 OA
HETATM    2  C   UNK N   1      30.573  44.641  57.884  0.00  0.00     0.109 A 
HETATM    3  C   UNK N   1      31.586  43.788  57.450  0.00  0.00     0.100 A 
HETATM    4  C   UNK N   1      31.225  42.604  56.784  0.00  0.00     0.051 A 
HETATM    5  C   UNK N   1      29.865  42.275  56.596  0.00  0.00    -0.033 A 
HETATM    6  C   UNK N   1      28.864  43.178  57.033  0.00  0.00     0.022 A 
HETATM    7  C   UNK N   1      29.259  44.357  57.674  0.00  0.00    -0.012 A 
HETATM    8  C   UNK N   1      28.445  45.523  58.122  0.00  0.00     0.079 C 
HETATM    9  C   UNK N   1      29.523  46.279  58.976  0.00  0.00     0.172 C 
ENDROOT
BRANCH   9  10
HETATM   10  C   UNK N   1      29.424  47.784  58.925  0.00  0.00    -0.025 A 
HETATM   11  C   UNK N   1      29.772  48.482  57.760  0.00  0.00     0.049 A 
HETATM   12  C   UNK N   1      29.674  49.890  57.712  0.00  0.00     0.101 A 
HETATM   13  C   UNK N   1      29.227  50.590  58.852  0.00  0.00     0.099 A 
HETATM   14  C   UNK N   1      28.888  49.887  60.012  0.00  0.00     0.040 A 
HETATM   15  C   UNK N   1      28.986  48.496  60.052  0.00  0.00     0.012 A 
BRANCH  12  16
HETATM   16  O   UNK N   1      30.002  50.593  56.593  0.00  0.00    -0.353 OA
HETATM   17  C   UNK N   1      30.990  50.241  55.696  0.00  0.00     0.210 C 
ENDBRANCH  12  16
BRANCH  13  18
HETATM   18  O   UNK N   1      29.117  51.935  58.848  0.00  0.00    -0.358 OA
HETATM   19  H   UNK N   1      28.417  52.397  58.366  0.00  0.00     0.218 HD
ENDBRANCH  13  18
ENDBRANCH   9  10
BRANCH   8  20
HETATM   20  C   UNK N   1      27.151  45.225  58.884  0.00  0.00     0.176 C 
BRANCH  20  21
HETATM   21  O   UNK N   1      27.428  44.974  60.237  0.00  0.00    -0.400 OA
HETATM   22  H   UNK N   1      28.382  44.701  60.291  0.00  0.00     0.209 HD
ENDBRANCH  20  21
ENDBRANCH   8  20
BRANCH   3  23
HETATM   23  O   UNK N   1      32.879  44.099  57.671  0.00  0.00    -0.358 OA
HETATM   24  H   UNK N   1      33.597  43.589  57.268  0.00  0.00     0.218 HD
ENDBRANCH   3  23
BRANCH   5  25
HETATM   25  C   UNK N   1      29.534  41.009  55.898  0.00  0.00     0.009 C 
HETATM   26  C   UNK N   1      29.494  40.841  54.561  0.00  0.00    -0.000 C 
BRANCH  26  27
HETATM   27  C   UNK N   1      29.683  41.935  53.544  0.00  0.00     0.194 C 
BRANCH  27  28
HETATM   28  O   UNK N   1      28.458  42.595  53.321  0.00  0.00    -0.392 OA
HETATM   29  C   UNK N   1      28.462  43.141  52.019  0.00  0.00     0.201 C 
ENDBRANCH  27  28
ENDBRANCH  26  27
ENDBRANCH   5  25
TORSDOF 9
ENDMDL
