MODEL 1
REMARK VINA RESULT:      -7.6      0.000      0.000
REMARK  5 active torsions:
REMARK  status: ('A' for Active; 'I' for Inactive)
REMARK    1  A    between atoms: C_4  and  O_5 
REMARK    2  A    between atoms: C_7  and  O_8 
REMARK    3  A    between atoms: C_10  and  O_11 
REMARK    4  A    between atoms: C_16  and  C_18 
REMARK    5  A    between atoms: C_21  and  O_22 
ROOT
HETATM    1  O   UNK N   1      37.633  44.982  47.428  0.00  0.00    -0.287 OA
HETATM    2  C   UNK N   1      38.694  45.364  47.877  0.00  0.00     0.190 A 
HETATM    3  C   UNK N   1      39.508  46.314  47.199  0.00  0.00     0.084 A 
HETATM    4  C   UNK N   1      39.187  46.905  45.930  0.00  0.00     0.119 A 
HETATM    5  C   UNK N   1      40.102  47.825  45.335  0.00  0.00     0.135 A 
HETATM    6  C   UNK N   1      41.296  48.143  45.992  0.00  0.00     0.104 A 
HETATM    7  C   UNK N   1      41.595  47.581  47.231  0.00  0.00     0.077 A 
HETATM    8  C   UNK N   1      40.721  46.682  47.835  0.00  0.00     0.096 A 
HETATM    9  O   UNK N   1      41.058  46.170  49.015  0.00  0.00    -0.309 OA
HETATM   10  C   UNK N   1      40.322  45.268  49.654  0.00  0.00     0.090 A 
HETATM   11  C   UNK N   1      39.117  44.839  49.093  0.00  0.00     0.094 A 
ENDROOT
BRANCH  10  12
HETATM   12  C   UNK N   1      40.806  44.741  50.955  0.00  0.00    -0.002 A 
HETATM   13  C   UNK N   1      40.217  43.584  51.493  0.00  0.00     0.017 A 
HETATM   14  C   UNK N   1      40.661  43.064  52.710  0.00  0.00     0.037 A 
HETATM   15  C   UNK N   1      41.685  43.707  53.419  0.00  0.00     0.065 A 
HETATM   16  C   UNK N   1      42.264  44.868  52.902  0.00  0.00     0.037 A 
HETATM   17  C   UNK N   1      41.837  45.379  51.674  0.00  0.00     0.017 A 
BRANCH  15  18
HETATM   18  O   UNK N   1      42.115  43.219  54.600  0.00  0.00    -0.361 OA
HETATM   19  H   UNK N   1      41.502  42.846  55.249  0.00  0.00     0.217 HD
ENDBRANCH  15  18
ENDBRANCH  10  12
BRANCH   4  20
HETATM   20  O   UNK N   1      38.043  46.621  45.265  0.00  0.00    -0.357 OA
HETATM   21  H   UNK N   1      37.644  45.763  45.113  0.00  0.00     0.218 HD
ENDBRANCH   4  20
BRANCH   6  22
HETATM   22  O   UNK N   1      42.165  49.002  45.414  0.00  0.00    -0.358 OA
HETATM   23  H   UNK N   1      42.085  49.961  45.522  0.00  0.00     0.218 HD
ENDBRANCH   6  22
BRANCH   5  24
HETATM   24  O   UNK N   1      39.878  48.426  44.129  0.00  0.00    -0.351 OA
HETATM   25  C   UNK N   1      39.116  49.549  43.874  0.00  0.00     0.210 C 
ENDBRANCH   5  24
TORSDOF 5
ENDMDL
MODEL 2
REMARK VINA RESULT:      -7.5      1.065      2.637
REMARK  5 active torsions:
REMARK  status: ('A' for Active; 'I' for Inactive)
REMARK    1  A    between atoms: C_4  and  O_5 
REMARK    2  A    between atoms: C_7  and  O_8 
REMARK    3  A    between atoms: C_10  and  O_11 
REMARK    4  A    between atoms: C_16  and  C_18 
REMARK    5  A    between atoms: C_21  and  O_22 
ROOT
HETATM    1  O   UNK N   1      43.407  48.174  47.693  0.00  0.00    -0.287 OA
HETATM    2  C   UNK N   1      42.434  47.507  47.977  0.00  0.00     0.190 A 
HETATM    3  C   UNK N   1      41.295  47.424  47.129  0.00  0.00     0.084 A 
HETATM    4  C   UNK N   1      41.158  48.115  45.877  0.00  0.00     0.119 A 
HETATM    5  C   UNK N   1      39.951  47.975  45.129  0.00  0.00     0.135 A 
HETATM    6  C   UNK N   1      38.917  47.168  45.618  0.00  0.00     0.104 A 
HETATM    7  C   UNK N   1      39.061  46.486  46.824  0.00  0.00     0.077 A 
HETATM    8  C   UNK N   1      40.228  46.602  47.573  0.00  0.00     0.096 A 
HETATM    9  O   UNK N   1      40.310  45.934  48.720  0.00  0.00    -0.309 OA
HETATM   10  C   UNK N   1      41.356  46.014  49.536  0.00  0.00     0.090 A 
HETATM   11  C   UNK N   1      42.447  46.811  49.181  0.00  0.00     0.094 A 
ENDROOT
BRANCH  10  12
HETATM   12  C   UNK N   1      41.333  45.246  50.806  0.00  0.00    -0.002 A 
HETATM   13  C   UNK N   1      40.455  44.157  50.938  0.00  0.00     0.017 A 
HETATM   14  C   UNK N   1      40.422  43.414  52.120  0.00  0.00     0.037 A 
HETATM   15  C   UNK N   1      41.250  43.764  53.196  0.00  0.00     0.065 A 
HETATM   16  C   UNK N   1      42.113  44.856  53.080  0.00  0.00     0.037 A 
HETATM   17  C   UNK N   1      42.165  45.589  51.892  0.00  0.00     0.017 A 
BRANCH  15  18
HETATM   18  O   UNK N   1      41.219  43.059  54.345  0.00  0.00    -0.361 OA
HETATM   19  H   UNK N   1      40.409  42.634  54.658  0.00  0.00     0.217 HD
ENDBRANCH  15  18
ENDBRANCH  10  12
BRANCH   4  20
HETATM   20  O   UNK N   1      42.135  48.904  45.373  0.00  0.00    -0.357 OA
HETATM   21  H   UNK N   1      42.837  48.664  44.766  0.00  0.00     0.218 HD
ENDBRANCH   4  20
BRANCH   6  22
HETATM   22  O   UNK N   1      37.770  47.055  44.912  0.00  0.00    -0.358 OA
HETATM   23  H   UNK N   1      37.050  46.474  45.197  0.00  0.00     0.218 HD
ENDBRANCH   6  22
BRANCH   5  24
HETATM   24  O   UNK N   1      39.735  48.602  43.934  0.00  0.00    -0.351 OA
HETATM   25  C   UNK N   1      39.334  49.907  43.726  0.00  0.00     0.210 C 
ENDBRANCH   5  24
TORSDOF 5
ENDMDL
MODEL 3
REMARK VINA RESULT:      -7.1      1.771      7.487
REMARK  5 active torsions:
REMARK  status: ('A' for Active; 'I' for Inactive)
REMARK    1  A    between atoms: C_4  and  O_5 
REMARK    2  A    between atoms: C_7  and  O_8 
REMARK    3  A    between atoms: C_10  and  O_11 
REMARK    4  A    between atoms: C_16  and  C_18 
REMARK    5  A    between atoms: C_21  and  O_22 
ROOT
HETATM    1  O   UNK N   1      37.870  45.054  47.381  0.00  0.00    -0.287 OA
HETATM    2  C   UNK N   1      38.763  45.862  47.229  0.00  0.00     0.190 A 
HETATM    3  C   UNK N   1      39.924  45.878  48.051  0.00  0.00     0.084 A 
HETATM    4  C   UNK N   1      40.162  44.973  49.142  0.00  0.00     0.119 A 
HETATM    5  C   UNK N   1      41.354  45.109  49.915  0.00  0.00     0.135 A 
HETATM    6  C   UNK N   1      42.276  46.115  49.604  0.00  0.00     0.104 A 
HETATM    7  C   UNK N   1      42.049  46.979  48.534  0.00  0.00     0.077 A 
HETATM    8  C   UNK N   1      40.896  46.868  47.763  0.00  0.00     0.096 A 
HETATM    9  O   UNK N   1      40.726  47.723  46.758  0.00  0.00    -0.309 OA
HETATM   10  C   UNK N   1      39.641  47.738  45.991  0.00  0.00     0.090 A 
HETATM   11  C   UNK N   1      38.627  46.803  46.214  0.00  0.00     0.094 A 
ENDROOT
BRANCH  10  12
HETATM   12  C   UNK N   1      39.541  48.753  44.912  0.00  0.00    -0.002 A 
HETATM   13  C   UNK N   1      40.413  49.855  44.920  0.00  0.00     0.017 A 
HETATM   14  C   UNK N   1      40.345  50.818  43.911  0.00  0.00     0.037 A 
HETATM   15  C   UNK N   1      39.388  50.705  42.893  0.00  0.00     0.065 A 
HETATM   16  C   UNK N   1      38.505  49.622  42.887  0.00  0.00     0.037 A 
HETATM   17  C   UNK N   1      38.584  48.646  43.882  0.00  0.00     0.017 A 
BRANCH  15  18
HETATM   18  O   UNK N   1      39.307  51.634  41.919  0.00  0.00    -0.361 OA
HETATM   19  H   UNK N   1      40.038  51.790  41.304  0.00  0.00     0.217 HD
ENDBRANCH  15  18
ENDBRANCH  10  12
BRANCH   4  20
HETATM   20  O   UNK N   1      39.294  43.990  49.472  0.00  0.00    -0.357 OA
HETATM   21  H   UNK N   1      38.864  43.837  50.316  0.00  0.00     0.218 HD
ENDBRANCH   4  20
BRANCH   6  22
HETATM   22  O   UNK N   1      43.394  46.248  50.352  0.00  0.00    -0.358 OA
HETATM   23  H   UNK N   1      44.261  46.404  49.952  0.00  0.00     0.218 HD
ENDBRANCH   6  22
BRANCH   5  24
HETATM   24  O   UNK N   1      41.655  44.297  50.972  0.00  0.00    -0.351 OA
HETATM   25  C   UNK N   1      41.214  44.410  52.275  0.00  0.00     0.210 C 
ENDBRANCH   5  24
TORSDOF 5
ENDMDL
MODEL 4
REMARK VINA RESULT:      -7.0      1.744      7.960
REMARK  5 active torsions:
REMARK  status: ('A' for Active; 'I' for Inactive)
REMARK    1  A    between atoms: C_4  and  O_5 
REMARK    2  A    between atoms: C_7  and  O_8 
REMARK    3  A    between atoms: C_10  and  O_11 
REMARK    4  A    between atoms: C_16  and  C_18 
REMARK    5  A    between atoms: C_21  and  O_22 
ROOT
HETATM    1  O   UNK N   1      43.349  47.908  47.725  0.00  0.00    -0.287 OA
HETATM    2  C   UNK N   1      42.214  47.752  47.322  0.00  0.00     0.190 A 
HETATM    3  C   UNK N   1      41.322  46.811  47.908  0.00  0.00     0.084 A 
HETATM    4  C   UNK N   1      41.655  45.945  49.005  0.00  0.00     0.119 A 
HETATM    5  C   UNK N   1      40.681  45.019  49.485  0.00  0.00     0.135 A 
HETATM    6  C   UNK N   1      39.417  44.966  48.889  0.00  0.00     0.104 A 
HETATM    7  C   UNK N   1      39.092  45.820  47.836  0.00  0.00     0.077 A 
HETATM    8  C   UNK N   1      40.022  46.733  47.349  0.00  0.00     0.096 A 
HETATM    9  O   UNK N   1      39.662  47.520  46.339  0.00  0.00    -0.309 OA
HETATM   10  C   UNK N   1      40.486  48.390  45.765  0.00  0.00     0.090 A 
HETATM   11  C   UNK N   1      41.791  48.524  46.245  0.00  0.00     0.094 A 
ENDROOT
BRANCH  10  12
HETATM   12  C   UNK N   1      39.989  49.201  44.625  0.00  0.00    -0.002 A 
HETATM   13  C   UNK N   1      38.927  48.715  43.844  0.00  0.00     0.017 A 
HETATM   14  C   UNK N   1      38.437  49.464  42.772  0.00  0.00     0.037 A 
HETATM   15  C   UNK N   1      39.017  50.699  42.452  0.00  0.00     0.065 A 
HETATM   16  C   UNK N   1      40.083  51.183  43.212  0.00  0.00     0.037 A 
HETATM   17  C   UNK N   1      40.563  50.447  44.298  0.00  0.00     0.017 A 
BRANCH  15  18
HETATM   18  O   UNK N   1      38.556  51.426  41.413  0.00  0.00    -0.361 OA
HETATM   19  H   UNK N   1      37.646  51.339  41.097  0.00  0.00     0.217 HD
ENDBRANCH  15  18
ENDBRANCH  10  12
BRANCH   4  20
HETATM   20  O   UNK N   1      42.867  45.968  49.605  0.00  0.00    -0.357 OA
HETATM   21  H   UNK N   1      43.247  46.660  50.150  0.00  0.00     0.218 HD
ENDBRANCH   4  20
BRANCH   6  22
HETATM   22  O   UNK N   1      38.506  44.074  49.339  0.00  0.00    -0.358 OA
HETATM   23  H   UNK N   1      38.549  43.704  50.232  0.00  0.00     0.218 HD
ENDBRANCH   6  22
BRANCH   5  24
HETATM   24  O   UNK N   1      40.917  44.156  50.518  0.00  0.00    -0.351 OA
HETATM   25  C   UNK N   1      40.922  44.438  51.869  0.00  0.00     0.210 C 
ENDBRANCH   5  24
TORSDOF 5
ENDMDL
MODEL 5
REMARK VINA RESULT:      -5.8      1.495      2.140
REMARK  5 active torsions:
REMARK  status: ('A' for Active; 'I' for Inactive)
REMARK    1  A    between atoms: C_4  and  O_5 
REMARK    2  A    between atoms: C_7  and  O_8 
REMARK    3  A    between atoms: C_10  and  O_11 
REMARK    4  A    between atoms: C_16  and  C_18 
REMARK    5  A    between atoms: C_21  and  O_22 
ROOT
HETATM    1  O   UNK N   1      42.129  44.084  46.294  0.00  0.00    -0.287 OA
HETATM    2  C   UNK N   1      41.636  44.767  47.168  0.00  0.00     0.190 A 
HETATM    3  C   UNK N   1      40.954  45.984  46.889  0.00  0.00     0.084 A 
HETATM    4  C   UNK N   1      40.786  46.541  45.575  0.00  0.00     0.119 A 
HETATM    5  C   UNK N   1      40.107  47.788  45.426  0.00  0.00     0.135 A 
HETATM    6  C   UNK N   1      39.611  48.451  46.554  0.00  0.00     0.104 A 
HETATM    7  C   UNK N   1      39.761  47.898  47.825  0.00  0.00     0.077 A 
HETATM    8  C   UNK N   1      40.417  46.683  47.999  0.00  0.00     0.096 A 
HETATM    9  O   UNK N   1      40.538  46.204  49.234  0.00  0.00    -0.309 OA
HETATM   10  C   UNK N   1      41.188  45.081  49.518  0.00  0.00     0.090 A 
HETATM   11  C   UNK N   1      41.760  44.334  48.484  0.00  0.00     0.094 A 
ENDROOT
BRANCH  10  12
HETATM   12  C   UNK N   1      41.287  44.650  50.935  0.00  0.00    -0.002 A 
HETATM   13  C   UNK N   1      41.990  45.450  51.852  0.00  0.00     0.017 A 
HETATM   14  C   UNK N   1      42.088  45.071  53.192  0.00  0.00     0.037 A 
HETATM   15  C   UNK N   1      41.506  43.874  53.630  0.00  0.00     0.065 A 
HETATM   16  C   UNK N   1      40.820  43.063  52.723  0.00  0.00     0.037 A 
HETATM   17  C   UNK N   1      40.701  43.449  51.386  0.00  0.00     0.017 A 
BRANCH  15  18
HETATM   18  O   UNK N   1      41.603  43.494  54.921  0.00  0.00    -0.361 OA
HETATM   19  H   UNK N   1      42.445  43.210  55.304  0.00  0.00     0.217 HD
ENDBRANCH  15  18
ENDBRANCH  10  12
BRANCH   4  20
HETATM   20  O   UNK N   1      41.252  45.930  44.462  0.00  0.00    -0.357 OA
HETATM   21  H   UNK N   1      40.905  45.978  43.570  0.00  0.00     0.218 HD
ENDBRANCH   4  20
BRANCH   6  22
HETATM   22  O   UNK N   1      38.984  49.639  46.407  0.00  0.00    -0.358 OA
HETATM   23  H   UNK N   1      38.312  49.944  47.033  0.00  0.00     0.218 HD
ENDBRANCH   6  22
BRANCH   5  24
HETATM   24  O   UNK N   1      39.910  48.391  44.216  0.00  0.00    -0.351 OA
HETATM   25  C   UNK N   1      38.722  48.856  43.688  0.00  0.00     0.210 C 
ENDBRANCH   5  24
TORSDOF 5
ENDMDL
MODEL 6
REMARK VINA RESULT:      -5.7      3.479      7.575
REMARK  5 active torsions:
REMARK  status: ('A' for Active; 'I' for Inactive)
REMARK    1  A    between atoms: C_4  and  O_5 
REMARK    2  A    between atoms: C_7  and  O_8 
REMARK    3  A    between atoms: C_10  and  O_11 
REMARK    4  A    between atoms: C_16  and  C_18 
REMARK    5  A    between atoms: C_21  and  O_22 
ROOT
HETATM    1  O   UNK N   1      40.738  45.450  48.786  0.00  0.00    -0.287 OA
HETATM    2  C   UNK N   1      40.915  45.607  47.595  0.00  0.00     0.190 A 
HETATM    3  C   UNK N   1      41.534  44.617  46.782  0.00  0.00     0.084 A 
HETATM    4  C   UNK N   1      42.023  43.355  47.264  0.00  0.00     0.119 A 
HETATM    5  C   UNK N   1      42.654  42.455  46.353  0.00  0.00     0.135 A 
HETATM    6  C   UNK N   1      42.787  42.808  45.005  0.00  0.00     0.104 A 
HETATM    7  C   UNK N   1      42.295  44.025  44.539  0.00  0.00     0.077 A 
HETATM    8  C   UNK N   1      41.675  44.920  45.404  0.00  0.00     0.096 A 
HETATM    9  O   UNK N   1      41.229  46.071  44.908  0.00  0.00    -0.309 OA
HETATM   10  C   UNK N   1      40.667  47.016  45.653  0.00  0.00     0.090 A 
HETATM   11  C   UNK N   1      40.500  46.805  47.024  0.00  0.00     0.094 A 
ENDROOT
BRANCH  10  12
HETATM   12  C   UNK N   1      40.229  48.276  45.001  0.00  0.00    -0.002 A 
HETATM   13  C   UNK N   1      41.121  49.360  44.927  0.00  0.00     0.017 A 
HETATM   14  C   UNK N   1      40.735  50.552  44.310  0.00  0.00     0.037 A 
HETATM   15  C   UNK N   1      39.445  50.685  43.779  0.00  0.00     0.065 A 
HETATM   16  C   UNK N   1      38.546  49.620  43.864  0.00  0.00     0.037 A 
HETATM   17  C   UNK N   1      38.934  48.418  44.461  0.00  0.00     0.017 A 
BRANCH  15  18
HETATM   18  O   UNK N   1      39.059  51.835  43.190  0.00  0.00    -0.361 OA
HETATM   19  H   UNK N   1      39.331  52.698  43.534  0.00  0.00     0.217 HD
ENDBRANCH  15  18
ENDBRANCH  10  12
BRANCH   4  20
HETATM   20  O   UNK N   1      41.913  42.980  48.559  0.00  0.00    -0.357 OA
HETATM   21  H   UNK N   1      41.374  43.375  49.247  0.00  0.00     0.218 HD
ENDBRANCH   4  20
BRANCH   6  22
HETATM   22  O   UNK N   1      43.401  41.958  44.152  0.00  0.00    -0.358 OA
HETATM   23  H   UNK N   1      44.202  41.474  44.400  0.00  0.00     0.218 HD
ENDBRANCH   6  22
BRANCH   5  24
HETATM   24  O   UNK N   1      43.153  41.240  46.729  0.00  0.00    -0.351 OA
HETATM   25  C   UNK N   1      42.498  40.025  46.737  0.00  0.00     0.210 C 
ENDBRANCH   5  24
TORSDOF 5
ENDMDL
MODEL 7
REMARK VINA RESULT:      -5.7      2.628      7.774
REMARK  5 active torsions:
REMARK  status: ('A' for Active; 'I' for Inactive)
REMARK    1  A    between atoms: C_4  and  O_5 
REMARK    2  A    between atoms: C_7  and  O_8 
REMARK    3  A    between atoms: C_10  and  O_11 
REMARK    4  A    between atoms: C_16  and  C_18 
REMARK    5  A    between atoms: C_21  and  O_22 
ROOT
HETATM    1  O   UNK N   1      38.307  46.882  48.224  0.00  0.00    -0.287 OA
HETATM    2  C   UNK N   1      39.056  46.927  47.270  0.00  0.00     0.190 A 
HETATM    3  C   UNK N   1      40.046  45.933  47.032  0.00  0.00     0.084 A 
HETATM    4  C   UNK N   1      40.281  44.797  47.880  0.00  0.00     0.119 A 
HETATM    5  C   UNK N   1      41.327  43.883  47.551  0.00  0.00     0.135 A 
HETATM    6  C   UNK N   1      42.107  44.099  46.410  0.00  0.00     0.104 A 
HETATM    7  C   UNK N   1      41.864  45.193  45.581  0.00  0.00     0.077 A 
HETATM    8  C   UNK N   1      40.850  46.098  45.877  0.00  0.00     0.096 A 
HETATM    9  O   UNK N   1      40.665  47.128  45.055  0.00  0.00    -0.309 OA
HETATM   10  C   UNK N   1      39.760  48.077  45.269  0.00  0.00     0.090 A 
HETATM   11  C   UNK N   1      38.933  47.999  46.392  0.00  0.00     0.094 A 
ENDROOT
BRANCH  10  12
HETATM   12  C   UNK N   1      39.656  49.197  44.301  0.00  0.00    -0.002 A 
HETATM   13  C   UNK N   1      40.346  50.395  44.556  0.00  0.00     0.017 A 
HETATM   14  C   UNK N   1      40.270  51.460  43.656  0.00  0.00     0.037 A 
HETATM   15  C   UNK N   1      39.485  51.351  42.500  0.00  0.00     0.065 A 
HETATM   16  C   UNK N   1      38.782  50.171  42.247  0.00  0.00     0.037 A 
HETATM   17  C   UNK N   1      38.871  49.096  43.134  0.00  0.00     0.017 A 
BRANCH  15  18
HETATM   18  O   UNK N   1      39.398  52.377  41.628  0.00  0.00    -0.361 OA
HETATM   19  H   UNK N   1      38.589  52.549  41.126  0.00  0.00     0.217 HD
ENDBRANCH  15  18
ENDBRANCH  10  12
BRANCH   4  20
HETATM   20  O   UNK N   1      39.547  44.557  48.991  0.00  0.00    -0.357 OA
HETATM   21  H   UNK N   1      38.597  44.449  49.063  0.00  0.00     0.218 HD
ENDBRANCH   4  20
BRANCH   6  22
HETATM   22  O   UNK N   1      43.107  43.239  46.115  0.00  0.00    -0.358 OA
HETATM   23  H   UNK N   1      44.014  43.384  46.420  0.00  0.00     0.218 HD
ENDBRANCH   6  22
BRANCH   5  24
HETATM   24  O   UNK N   1      41.622  42.784  48.306  0.00  0.00    -0.351 OA
HETATM   25  C   UNK N   1      41.830  42.727  49.670  0.00  0.00     0.210 C 
ENDBRANCH   5  24
TORSDOF 5
ENDMDL
MODEL 8
REMARK VINA RESULT:      -5.5     12.654     16.371
REMARK  5 active torsions:
REMARK  status: ('A' for Active; 'I' for Inactive)
REMARK    1  A    between atoms: C_4  and  O_5 
REMARK    2  A    between atoms: C_7  and  O_8 
REMARK    3  A    between atoms: C_10  and  O_11 
REMARK    4  A    between atoms: C_16  and  C_18 
REMARK    5  A    between atoms: C_21  and  O_22 
ROOT
HETATM    1  O   UNK N   1      26.048  55.856  42.425  0.00  0.00    -0.287 OA
HETATM    2  C   UNK N   1      27.009  55.177  42.130  0.00  0.00     0.190 A 
HETATM    3  C   UNK N   1      26.976  54.234  41.065  0.00  0.00     0.084 A 
HETATM    4  C   UNK N   1      25.825  53.970  40.246  0.00  0.00     0.119 A 
HETATM    5  C   UNK N   1      25.907  52.976  39.225  0.00  0.00     0.135 A 
HETATM    6  C   UNK N   1      27.101  52.273  39.031  0.00  0.00     0.104 A 
HETATM    7  C   UNK N   1      28.220  52.545  39.816  0.00  0.00     0.077 A 
HETATM    8  C   UNK N   1      28.169  53.510  40.817  0.00  0.00     0.096 A 
HETATM    9  O   UNK N   1      29.264  53.725  41.541  0.00  0.00    -0.309 OA
HETATM   10  C   UNK N   1      29.310  54.586  42.552  0.00  0.00     0.090 A 
HETATM   11  C   UNK N   1      28.174  55.333  42.874  0.00  0.00     0.094 A 
ENDROOT
BRANCH  10  12
HETATM   12  C   UNK N   1      30.577  54.729  43.313  0.00  0.00    -0.002 A 
HETATM   13  C   UNK N   1      30.609  54.372  44.672  0.00  0.00     0.017 A 
HETATM   14  C   UNK N   1      31.791  54.489  45.406  0.00  0.00     0.037 A 
HETATM   15  C   UNK N   1      32.952  54.986  44.798  0.00  0.00     0.065 A 
HETATM   16  C   UNK N   1      32.925  55.359  43.453  0.00  0.00     0.037 A 
HETATM   17  C   UNK N   1      31.751  55.224  42.709  0.00  0.00     0.017 A 
BRANCH  15  18
HETATM   18  O   UNK N   1      34.096  55.111  45.501  0.00  0.00    -0.361 OA
HETATM   19  H   UNK N   1      34.409  55.972  45.812  0.00  0.00     0.217 HD
ENDBRANCH  15  18
ENDBRANCH  10  12
BRANCH   4  20
HETATM   20  O   UNK N   1      24.654  54.628  40.405  0.00  0.00    -0.357 OA
HETATM   21  H   UNK N   1      23.773  54.339  40.160  0.00  0.00     0.218 HD
ENDBRANCH   4  20
BRANCH   6  22
HETATM   22  O   UNK N   1      27.165  51.321  38.074  0.00  0.00    -0.358 OA
HETATM   23  H   UNK N   1      27.992  51.108  37.617  0.00  0.00     0.218 HD
ENDBRANCH   6  22
BRANCH   5  24
HETATM   24  O   UNK N   1      24.860  52.657  38.407  0.00  0.00    -0.351 OA
HETATM   25  C   UNK N   1      24.500  53.265  37.222  0.00  0.00     0.210 C 
ENDBRANCH   5  24
TORSDOF 5
ENDMDL
MODEL 9
REMARK VINA RESULT:      -5.4     12.536     16.339
REMARK  5 active torsions:
REMARK  status: ('A' for Active; 'I' for Inactive)
REMARK    1  A    between atoms: C_4  and  O_5 
REMARK    2  A    between atoms: C_7  and  O_8 
REMARK    3  A    between atoms: C_10  and  O_11 
REMARK    4  A    between atoms: C_16  and  C_18 
REMARK    5  A    between atoms: C_21  and  O_22 
ROOT
HETATM    1  O   UNK N   1      29.226  57.978  41.038  0.00  0.00    -0.287 OA
HETATM    2  C   UNK N   1      29.150  56.803  41.331  0.00  0.00     0.190 A 
HETATM    3  C   UNK N   1      28.065  55.984  40.912  0.00  0.00     0.084 A 
HETATM    4  C   UNK N   1      26.953  56.443  40.126  0.00  0.00     0.119 A 
HETATM    5  C   UNK N   1      25.907  55.530  39.793  0.00  0.00     0.135 A 
HETATM    6  C   UNK N   1      25.976  54.203  40.230  0.00  0.00     0.104 A 
HETATM    7  C   UNK N   1      27.065  53.757  40.977  0.00  0.00     0.077 A 
HETATM    8  C   UNK N   1      28.099  54.625  41.315  0.00  0.00     0.096 A 
HETATM    9  O   UNK N   1      29.111  54.149  42.034  0.00  0.00    -0.309 OA
HETATM   10  C   UNK N   1      30.123  54.901  42.453  0.00  0.00     0.090 A 
HETATM   11  C   UNK N   1      30.163  56.255  42.111  0.00  0.00     0.094 A 
ENDROOT
BRANCH  10  12
HETATM   12  C   UNK N   1      31.189  54.274  43.274  0.00  0.00    -0.002 A 
HETATM   13  C   UNK N   1      31.464  52.905  43.119  0.00  0.00     0.017 A 
HETATM   14  C   UNK N   1      32.468  52.295  43.874  0.00  0.00     0.037 A 
HETATM   15  C   UNK N   1      33.196  53.040  44.812  0.00  0.00     0.065 A 
HETATM   16  C   UNK N   1      32.917  54.398  44.985  0.00  0.00     0.037 A 
HETATM   17  C   UNK N   1      31.929  55.017  44.218  0.00  0.00     0.017 A 
BRANCH  15  18
HETATM   18  O   UNK N   1      34.161  52.459  45.552  0.00  0.00    -0.361 OA
HETATM   19  H   UNK N   1      34.263  51.497  45.589  0.00  0.00     0.217 HD
ENDBRANCH  15  18
ENDBRANCH  10  12
BRANCH   4  20
HETATM   20  O   UNK N   1      26.852  57.719  39.687  0.00  0.00    -0.357 OA
HETATM   21  H   UNK N   1      26.056  58.228  39.524  0.00  0.00     0.218 HD
ENDBRANCH   4  20
BRANCH   6  22
HETATM   22  O   UNK N   1      24.974  53.349  39.926  0.00  0.00    -0.358 OA
HETATM   23  H   UNK N   1      24.056  53.646  39.841  0.00  0.00     0.218 HD
ENDBRANCH   6  22
BRANCH   5  24
HETATM   24  O   UNK N   1      24.812  55.885  39.058  0.00  0.00    -0.351 OA
HETATM   25  C   UNK N   1      24.699  55.934  37.683  0.00  0.00     0.210 C 
ENDBRANCH   5  24
TORSDOF 5
ENDMDL
