MODEL 1
REMARK VINA RESULT:      -6.8      0.000      0.000
REMARK  7 active torsions:
REMARK  status: ('A' for Active; 'I' for Inactive)
REMARK    1  A    between atoms: S_1  and  O_4 
REMARK    2  A    between atoms: S_1  and  O_28 
REMARK    3  A    between atoms: O_4  and  C_5 
REMARK    4  A    between atoms: C_6  and  O_7 
REMARK    5  A    between atoms: C_9  and  O_10 
REMARK    6  A    between atoms: C_16  and  C_20 
REMARK    7  A    between atoms: C_23  and  O_24 
ROOT
HETATM    1  C   UNK N   1      39.204  49.073  45.285  0.00  0.00     0.130 A 
HETATM    2  C   UNK N   1      40.417  49.581  44.809  0.00  0.00     0.137 A 
HETATM    3  C   UNK N   1      41.649  49.139  45.372  0.00  0.00     0.119 A 
HETATM    4  C   UNK N   1      41.629  48.206  46.467  0.00  0.00     0.084 A 
HETATM    5  C   UNK N   1      42.786  47.723  47.134  0.00  0.00     0.190 A 
HETATM    6  O   UNK N   1      43.909  48.052  46.806  0.00  0.00    -0.287 OA
HETATM    7  C   UNK N   1      42.649  46.857  48.215  0.00  0.00     0.094 A 
HETATM    8  C   UNK N   1      41.374  46.450  48.628  0.00  0.00     0.090 A 
HETATM    9  O   UNK N   1      40.307  46.890  47.966  0.00  0.00    -0.309 OA
HETATM   10  C   UNK N   1      40.378  47.736  46.939  0.00  0.00     0.096 A 
HETATM   11  C   UNK N   1      39.190  48.158  46.345  0.00  0.00     0.079 A 
ENDROOT
BRANCH   8  12
HETATM   12  C   UNK N   1      41.176  45.549  49.804  0.00  0.00    -0.002 A 
HETATM   13  C   UNK N   1      41.963  45.730  50.958  0.00  0.00     0.017 A 
HETATM   14  C   UNK N   1      41.797  44.896  52.071  0.00  0.00     0.037 A 
HETATM   15  C   UNK N   1      40.856  43.858  52.041  0.00  0.00     0.065 A 
HETATM   16  C   UNK N   1      40.083  43.660  50.897  0.00  0.00     0.037 A 
HETATM   17  C   UNK N   1      40.232  44.496  49.789  0.00  0.00     0.017 A 
BRANCH  15  18
HETATM   18  O   UNK N   1      40.691  43.046  53.104  0.00  0.00    -0.361 OA
HETATM   19  H   UNK N   1      39.939  43.139  53.706  0.00  0.00     0.217 HD
ENDBRANCH  15  18
ENDBRANCH   8  12
BRANCH   3  20
HETATM   20  O   UNK N   1      42.797  49.620  44.844  0.00  0.00    -0.357 OA
HETATM   21  H   UNK N   1      43.620  49.809  45.300  0.00  0.00     0.218 HD
ENDBRANCH   3  20
BRANCH   1  22
HETATM   22  O   UNK N   1      38.062  49.503  44.689  0.00  0.00    -0.218 OA
BRANCH  22  23
HETATM   23  S   UNK N   1      37.524  49.092  43.127  0.00  0.00     0.245 S 
HETATM   24  O   UNK N   1      36.288  49.936  42.777  0.00  0.00    -0.579 OA
HETATM   25  O   UNK N   1      37.050  47.630  43.099  0.00  0.00    -0.579 OA
BRANCH  23  26
HETATM   26  O   UNK N   1      38.723  49.322  41.921  0.00  0.00    -0.273 OA
HETATM   27  H   UNK N   1      38.980  48.404  41.651  0.00  0.00     0.234 HD
ENDBRANCH  23  26
ENDBRANCH  22  23
ENDBRANCH   1  22
BRANCH   2  28
HETATM   28  O   UNK N   1      40.339  50.501  43.802  0.00  0.00    -0.351 OA
HETATM   29  C   UNK N   1      40.257  51.875  43.906  0.00  0.00     0.210 C 
ENDBRANCH   2  28
TORSDOF 7
ENDMDL
MODEL 2
REMARK VINA RESULT:      -6.4      3.684      8.180
REMARK  7 active torsions:
REMARK  status: ('A' for Active; 'I' for Inactive)
REMARK    1  A    between atoms: S_1  and  O_4 
REMARK    2  A    between atoms: S_1  and  O_28 
REMARK    3  A    between atoms: O_4  and  C_5 
REMARK    4  A    between atoms: C_6  and  O_7 
REMARK    5  A    between atoms: C_9  and  O_10 
REMARK    6  A    between atoms: C_16  and  C_20 
REMARK    7  A    between atoms: C_23  and  O_24 
ROOT
HETATM    1  C   UNK N   1      42.143  44.071  46.945  0.00  0.00     0.130 A 
HETATM    2  C   UNK N   1      41.273  43.847  48.017  0.00  0.00     0.137 A 
HETATM    3  C   UNK N   1      40.117  44.662  48.184  0.00  0.00     0.119 A 
HETATM    4  C   UNK N   1      39.882  45.748  47.269  0.00  0.00     0.084 A 
HETATM    5  C   UNK N   1      38.788  46.651  47.355  0.00  0.00     0.190 A 
HETATM    6  O   UNK N   1      37.936  46.557  48.215  0.00  0.00    -0.287 OA
HETATM    7  C   UNK N   1      38.683  47.697  46.443  0.00  0.00     0.094 A 
HETATM    8  C   UNK N   1      39.643  47.844  45.433  0.00  0.00     0.090 A 
HETATM    9  O   UNK N   1      40.640  46.966  45.353  0.00  0.00    -0.309 OA
HETATM   10  C   UNK N   1      40.801  45.959  46.211  0.00  0.00     0.096 A 
HETATM   11  C   UNK N   1      41.905  45.123  46.052  0.00  0.00     0.079 A 
ENDROOT
BRANCH   8  12
HETATM   12  C   UNK N   1      39.591  48.971  44.453  0.00  0.00    -0.002 A 
HETATM   13  C   UNK N   1      40.370  50.122  44.676  0.00  0.00     0.017 A 
HETATM   14  C   UNK N   1      40.335  51.191  43.772  0.00  0.00     0.037 A 
HETATM   15  C   UNK N   1      39.509  51.134  42.642  0.00  0.00     0.065 A 
HETATM   16  C   UNK N   1      38.720  50.004  42.420  0.00  0.00     0.037 A 
HETATM   17  C   UNK N   1      38.760  48.928  43.309  0.00  0.00     0.017 A 
BRANCH  15  18
HETATM   18  O   UNK N   1      39.462  52.159  41.768  0.00  0.00    -0.361 OA
HETATM   19  H   UNK N   1      39.825  52.084  40.874  0.00  0.00     0.217 HD
ENDBRANCH  15  18
ENDBRANCH   8  12
BRANCH   3  20
HETATM   20  O   UNK N   1      39.279  44.376  49.206  0.00  0.00    -0.357 OA
HETATM   21  H   UNK N   1      39.058  43.512  49.561  0.00  0.00     0.218 HD
ENDBRANCH   3  20
BRANCH   1  22
HETATM   22  O   UNK N   1      43.210  43.242  46.814  0.00  0.00    -0.218 OA
BRANCH  22  23
HETATM   23  S   UNK N   1      43.344  41.935  45.732  0.00  0.00     0.245 S 
HETATM   24  O   UNK N   1      44.762  41.908  45.140  0.00  0.00    -0.579 OA
HETATM   25  O   UNK N   1      42.399  42.140  44.536  0.00  0.00    -0.579 OA
BRANCH  23  26
HETATM   26  O   UNK N   1      43.011  40.418  46.463  0.00  0.00    -0.273 OA
HETATM   27  H   UNK N   1      43.435  39.755  45.860  0.00  0.00     0.234 HD
ENDBRANCH  23  26
ENDBRANCH  22  23
ENDBRANCH   1  22
BRANCH   2  28
HETATM   28  O   UNK N   1      41.601  42.827  48.865  0.00  0.00    -0.351 OA
HETATM   29  C   UNK N   1      41.817  42.887  50.227  0.00  0.00     0.210 C 
ENDBRANCH   2  28
TORSDOF 7
ENDMDL
MODEL 3
REMARK VINA RESULT:      -5.9     11.036     14.613
REMARK  7 active torsions:
REMARK  status: ('A' for Active; 'I' for Inactive)
REMARK    1  A    between atoms: S_1  and  O_4 
REMARK    2  A    between atoms: S_1  and  O_28 
REMARK    3  A    between atoms: O_4  and  C_5 
REMARK    4  A    between atoms: C_6  and  O_7 
REMARK    5  A    between atoms: C_9  and  O_10 
REMARK    6  A    between atoms: C_16  and  C_20 
REMARK    7  A    between atoms: C_23  and  O_24 
ROOT
HETATM    1  C   UNK N   1      26.856  53.554  39.883  0.00  0.00     0.130 A 
HETATM    2  C   UNK N   1      26.633  54.931  39.783  0.00  0.00     0.137 A 
HETATM    3  C   UNK N   1      27.547  55.850  40.373  0.00  0.00     0.119 A 
HETATM    4  C   UNK N   1      28.672  55.346  41.115  0.00  0.00     0.084 A 
HETATM    5  C   UNK N   1      29.629  56.160  41.779  0.00  0.00     0.190 A 
HETATM    6  O   UNK N   1      29.579  57.374  41.750  0.00  0.00    -0.287 OA
HETATM    7  C   UNK N   1      30.654  55.566  42.509  0.00  0.00     0.094 A 
HETATM    8  C   UNK N   1      30.751  54.170  42.570  0.00  0.00     0.090 A 
HETATM    9  O   UNK N   1      29.863  53.428  41.912  0.00  0.00    -0.309 OA
HETATM   10  C   UNK N   1      28.850  53.944  41.216  0.00  0.00     0.096 A 
HETATM   11  C   UNK N   1      27.958  53.069  40.598  0.00  0.00     0.079 A 
ENDROOT
BRANCH   8  12
HETATM   12  C   UNK N   1      31.813  53.487  43.369  0.00  0.00    -0.002 A 
HETATM   13  C   UNK N   1      31.995  52.096  43.238  0.00  0.00     0.017 A 
HETATM   14  C   UNK N   1      32.983  51.434  43.977  0.00  0.00     0.037 A 
HETATM   15  C   UNK N   1      33.792  52.148  44.872  0.00  0.00     0.065 A 
HETATM   16  C   UNK N   1      33.609  53.523  45.022  0.00  0.00     0.037 A 
HETATM   17  C   UNK N   1      32.636  54.192  44.277  0.00  0.00     0.017 A 
BRANCH  15  18
HETATM   18  O   UNK N   1      34.742  51.520  45.594  0.00  0.00    -0.361 OA
HETATM   19  H   UNK N   1      35.658  51.460  45.287  0.00  0.00     0.217 HD
ENDBRANCH  15  18
ENDBRANCH   8  12
BRANCH   3  20
HETATM   20  O   UNK N   1      27.316  57.172  40.207  0.00  0.00    -0.357 OA
HETATM   21  H   UNK N   1      27.956  57.862  40.018  0.00  0.00     0.218 HD
ENDBRANCH   3  20
BRANCH   1  22
HETATM   22  O   UNK N   1      25.972  52.725  39.272  0.00  0.00    -0.218 OA
BRANCH  22  23
HETATM   23  S   UNK N   1      25.521  51.169  39.795  0.00  0.00     0.245 S 
HETATM   24  O   UNK N   1      26.503  50.135  39.222  0.00  0.00    -0.579 OA
HETATM   25  O   UNK N   1      24.144  50.797  39.220  0.00  0.00    -0.579 OA
BRANCH  23  26
HETATM   26  O   UNK N   1      25.480  51.020  41.504  0.00  0.00    -0.273 OA
HETATM   27  H   UNK N   1      24.879  51.749  41.801  0.00  0.00     0.234 HD
ENDBRANCH  23  26
ENDBRANCH  22  23
ENDBRANCH   1  22
BRANCH   2  28
HETATM   28  O   UNK N   1      25.512  55.319  39.104  0.00  0.00    -0.351 OA
HETATM   29  C   UNK N   1      24.275  55.648  39.619  0.00  0.00     0.210 C 
ENDBRANCH   2  28
TORSDOF 7
ENDMDL
MODEL 4
REMARK VINA RESULT:      -5.6     14.976     17.189
REMARK  7 active torsions:
REMARK  status: ('A' for Active; 'I' for Inactive)
REMARK    1  A    between atoms: S_1  and  O_4 
REMARK    2  A    between atoms: S_1  and  O_28 
REMARK    3  A    between atoms: O_4  and  C_5 
REMARK    4  A    between atoms: C_6  and  O_7 
REMARK    5  A    between atoms: C_9  and  O_10 
REMARK    6  A    between atoms: C_16  and  C_20 
REMARK    7  A    between atoms: C_23  and  O_24 
ROOT
HETATM    1  C   UNK N   1      32.322  42.780  59.635  0.00  0.00     0.130 A 
HETATM    2  C   UNK N   1      31.186  42.728  60.450  0.00  0.00     0.137 A 
HETATM    3  C   UNK N   1      31.264  43.127  61.815  0.00  0.00     0.119 A 
HETATM    4  C   UNK N   1      32.532  43.535  62.359  0.00  0.00     0.084 A 
HETATM    5  C   UNK N   1      32.743  43.917  63.711  0.00  0.00     0.190 A 
HETATM    6  O   UNK N   1      31.841  43.951  64.523  0.00  0.00    -0.287 OA
HETATM    7  C   UNK N   1      34.024  44.249  64.142  0.00  0.00     0.094 A 
HETATM    8  C   UNK N   1      35.095  44.223  63.240  0.00  0.00     0.090 A 
HETATM    9  O   UNK N   1      34.867  43.895  61.971  0.00  0.00    -0.309 OA
HETATM   10  C   UNK N   1      33.666  43.548  61.508  0.00  0.00     0.096 A 
HETATM   11  C   UNK N   1      33.552  43.187  60.167  0.00  0.00     0.079 A 
ENDROOT
BRANCH   8  12
HETATM   12  C   UNK N   1      36.493  44.539  63.666  0.00  0.00    -0.002 A 
HETATM   13  C   UNK N   1      37.381  45.133  62.748  0.00  0.00     0.017 A 
HETATM   14  C   UNK N   1      38.695  45.435  63.123  0.00  0.00     0.037 A 
HETATM   15  C   UNK N   1      39.149  45.132  64.414  0.00  0.00     0.065 A 
HETATM   16  C   UNK N   1      38.282  44.528  65.326  0.00  0.00     0.037 A 
HETATM   17  C   UNK N   1      36.965  44.237  64.964  0.00  0.00     0.017 A 
BRANCH  15  18
HETATM   18  O   UNK N   1      40.414  45.413  64.785  0.00  0.00    -0.361 OA
HETATM   19  H   UNK N   1      40.694  45.377  65.710  0.00  0.00     0.217 HD
ENDBRANCH  15  18
ENDBRANCH   8  12
BRANCH   3  20
HETATM   20  O   UNK N   1      30.128  43.107  62.549  0.00  0.00    -0.357 OA
HETATM   21  H   UNK N   1      29.224  43.050  62.233  0.00  0.00     0.218 HD
ENDBRANCH   3  20
BRANCH   1  22
HETATM   22  O   UNK N   1      32.182  42.421  58.333  0.00  0.00    -0.218 OA
BRANCH  22  23
HETATM   23  S   UNK N   1      31.705  43.437  57.053  0.00  0.00     0.245 S 
HETATM   24  O   UNK N   1      32.328  42.931  55.743  0.00  0.00    -0.579 OA
HETATM   25  O   UNK N   1      32.269  44.851  57.263  0.00  0.00    -0.579 OA
BRANCH  23  26
HETATM   26  O   UNK N   1      30.001  43.529  56.868  0.00  0.00    -0.273 OA
HETATM   27  H   UNK N   1      29.642  43.288  57.760  0.00  0.00     0.234 HD
ENDBRANCH  23  26
ENDBRANCH  22  23
ENDBRANCH   1  22
BRANCH   2  28
HETATM   28  O   UNK N   1      30.036  42.280  59.863  0.00  0.00    -0.351 OA
HETATM   29  C   UNK N   1      29.517  41.001  59.871  0.00  0.00     0.210 C 
ENDBRANCH   2  28
TORSDOF 7
ENDMDL
MODEL 5
REMARK VINA RESULT:      -5.3     16.283     18.783
REMARK  7 active torsions:
REMARK  status: ('A' for Active; 'I' for Inactive)
REMARK    1  A    between atoms: S_1  and  O_4 
REMARK    2  A    between atoms: S_1  and  O_28 
REMARK    3  A    between atoms: O_4  and  C_5 
REMARK    4  A    between atoms: C_6  and  O_7 
REMARK    5  A    between atoms: C_9  and  O_10 
REMARK    6  A    between atoms: C_16  and  C_20 
REMARK    7  A    between atoms: C_23  and  O_24 
ROOT
HETATM    1  C   UNK N   1      33.067  53.072  63.718  0.00  0.00     0.130 A 
HETATM    2  C   UNK N   1      31.768  52.704  64.083  0.00  0.00     0.137 A 
HETATM    3  C   UNK N   1      31.442  51.332  64.287  0.00  0.00     0.119 A 
HETATM    4  C   UNK N   1      32.448  50.328  64.066  0.00  0.00     0.084 A 
HETATM    5  C   UNK N   1      32.234  48.930  64.200  0.00  0.00     0.190 A 
HETATM    6  O   UNK N   1      31.165  48.468  64.542  0.00  0.00    -0.287 OA
HETATM    7  C   UNK N   1      33.268  48.043  63.914  0.00  0.00     0.094 A 
HETATM    8  C   UNK N   1      34.519  48.531  63.516  0.00  0.00     0.090 A 
HETATM    9  O   UNK N   1      34.705  49.846  63.430  0.00  0.00    -0.309 OA
HETATM   10  C   UNK N   1      33.746  50.739  63.671  0.00  0.00     0.096 A 
HETATM   11  C   UNK N   1      34.046  52.091  63.513  0.00  0.00     0.079 A 
ENDROOT
BRANCH   8  12
HETATM   12  C   UNK N   1      35.648  47.616  63.166  0.00  0.00    -0.002 A 
HETATM   13  C   UNK N   1      35.540  46.240  63.447  0.00  0.00     0.017 A 
HETATM   14  C   UNK N   1      36.585  45.364  63.131  0.00  0.00     0.037 A 
HETATM   15  C   UNK N   1      37.762  45.851  62.547  0.00  0.00     0.065 A 
HETATM   16  C   UNK N   1      37.886  47.215  62.279  0.00  0.00     0.037 A 
HETATM   17  C   UNK N   1      36.842  48.093  62.577  0.00  0.00     0.017 A 
BRANCH  15  18
HETATM   18  O   UNK N   1      38.778  45.019  62.243  0.00  0.00    -0.361 OA
HETATM   19  H   UNK N   1      38.691  44.058  62.323  0.00  0.00     0.217 HD
ENDBRANCH  15  18
ENDBRANCH   8  12
BRANCH   3  20
HETATM   20  O   UNK N   1      30.186  51.030  64.688  0.00  0.00    -0.357 OA
HETATM   21  H   UNK N   1      29.860  50.943  65.586  0.00  0.00     0.218 HD
ENDBRANCH   3  20
BRANCH   1  22
HETATM   22  O   UNK N   1      33.331  54.395  63.571  0.00  0.00    -0.218 OA
BRANCH  22  23
HETATM   23  S   UNK N   1      34.863  55.132  63.644  0.00  0.00     0.245 S 
HETATM   24  O   UNK N   1      34.736  56.611  63.245  0.00  0.00    -0.579 OA
HETATM   25  O   UNK N   1      35.802  54.501  62.603  0.00  0.00    -0.579 OA
BRANCH  23  26
HETATM   26  O   UNK N   1      35.587  55.028  65.196  0.00  0.00    -0.273 OA
HETATM   27  H   UNK N   1      35.408  54.099  65.490  0.00  0.00     0.234 HD
ENDBRANCH  23  26
ENDBRANCH  22  23
ENDBRANCH   1  22
BRANCH   2  28
HETATM   28  O   UNK N   1      30.863  53.719  64.222  0.00  0.00    -0.351 OA
HETATM   29  C   UNK N   1      29.891  54.123  63.329  0.00  0.00     0.210 C 
ENDBRANCH   2  28
TORSDOF 7
ENDMDL
MODEL 6
REMARK VINA RESULT:      -5.1     14.489     16.676
REMARK  7 active torsions:
REMARK  status: ('A' for Active; 'I' for Inactive)
REMARK    1  A    between atoms: S_1  and  O_4 
REMARK    2  A    between atoms: S_1  and  O_28 
REMARK    3  A    between atoms: O_4  and  C_5 
REMARK    4  A    between atoms: C_6  and  O_7 
REMARK    5  A    between atoms: C_9  and  O_10 
REMARK    6  A    between atoms: C_16  and  C_20 
REMARK    7  A    between atoms: C_23  and  O_24 
ROOT
HETATM    1  C   UNK N   1      30.034  42.198  57.242  0.00  0.00     0.130 A 
HETATM    2  C   UNK N   1      29.190  41.338  57.953  0.00  0.00     0.137 A 
HETATM    3  C   UNK N   1      29.393  41.126  59.347  0.00  0.00     0.119 A 
HETATM    4  C   UNK N   1      30.503  41.764  60.003  0.00  0.00     0.084 A 
HETATM    5  C   UNK N   1      30.831  41.599  61.376  0.00  0.00     0.190 A 
HETATM    6  O   UNK N   1      30.166  40.909  62.122  0.00  0.00    -0.287 OA
HETATM    7  C   UNK N   1      31.958  42.228  61.897  0.00  0.00     0.094 A 
HETATM    8  C   UNK N   1      32.754  43.034  61.073  0.00  0.00     0.090 A 
HETATM    9  O   UNK N   1      32.408  43.200  59.799  0.00  0.00    -0.309 OA
HETATM   10  C   UNK N   1      31.353  42.606  59.242  0.00  0.00     0.096 A 
HETATM   11  C   UNK N   1      31.108  42.823  57.887  0.00  0.00     0.079 A 
ENDROOT
BRANCH   8  12
HETATM   12  C   UNK N   1      33.991  43.701  61.580  0.00  0.00    -0.002 A 
HETATM   13  C   UNK N   1      34.004  44.248  62.877  0.00  0.00     0.017 A 
HETATM   14  C   UNK N   1      35.151  44.880  63.373  0.00  0.00     0.037 A 
HETATM   15  C   UNK N   1      36.297  44.990  62.574  0.00  0.00     0.065 A 
HETATM   16  C   UNK N   1      36.290  44.466  61.281  0.00  0.00     0.037 A 
HETATM   17  C   UNK N   1      35.155  43.821  60.785  0.00  0.00     0.017 A 
BRANCH  15  18
HETATM   18  O   UNK N   1      37.405  45.601  63.037  0.00  0.00    -0.361 OA
HETATM   19  H   UNK N   1      37.357  46.350  63.648  0.00  0.00     0.217 HD
ENDBRANCH  15  18
ENDBRANCH   8  12
BRANCH   3  20
HETATM   20  O   UNK N   1      28.521  40.326  60.002  0.00  0.00    -0.357 OA
HETATM   21  H   UNK N   1      28.289  39.418  59.799  0.00  0.00     0.218 HD
ENDBRANCH   3  20
BRANCH   1  22
HETATM   22  O   UNK N   1      29.774  42.391  55.924  0.00  0.00    -0.218 OA
BRANCH  22  23
HETATM   23  S   UNK N   1      30.481  41.551  54.623  0.00  0.00     0.245 S 
HETATM   24  O   UNK N   1      29.804  41.980  53.312  0.00  0.00    -0.579 OA
HETATM   25  O   UNK N   1      30.209  40.044  54.758  0.00  0.00    -0.579 OA
BRANCH  23  26
HETATM   26  O   UNK N   1      32.173  41.811  54.494  0.00  0.00    -0.273 OA
HETATM   27  H   UNK N   1      32.311  42.070  53.548  0.00  0.00     0.234 HD
ENDBRANCH  23  26
ENDBRANCH  22  23
ENDBRANCH   1  22
BRANCH   2  28
HETATM   28  O   UNK N   1      28.193  40.736  57.240  0.00  0.00    -0.351 OA
HETATM   29  C   UNK N   1      26.852  41.060  57.209  0.00  0.00     0.210 C 
ENDBRANCH   2  28
TORSDOF 7
ENDMDL
MODEL 7
REMARK VINA RESULT:      -5.1     10.569     15.716
REMARK  7 active torsions:
REMARK  status: ('A' for Active; 'I' for Inactive)
REMARK    1  A    between atoms: S_1  and  O_4 
REMARK    2  A    between atoms: S_1  and  O_28 
REMARK    3  A    between atoms: O_4  and  C_5 
REMARK    4  A    between atoms: C_6  and  O_7 
REMARK    5  A    between atoms: C_9  and  O_10 
REMARK    6  A    between atoms: C_16  and  C_20 
REMARK    7  A    between atoms: C_23  and  O_24 
ROOT
HETATM    1  C   UNK N   1      31.143  51.741  40.997  0.00  0.00     0.130 A 
HETATM    2  C   UNK N   1      31.555  52.056  42.296  0.00  0.00     0.137 A 
HETATM    3  C   UNK N   1      31.321  53.356  42.827  0.00  0.00     0.119 A 
HETATM    4  C   UNK N   1      30.703  54.356  41.996  0.00  0.00     0.084 A 
HETATM    5  C   UNK N   1      30.453  55.695  42.399  0.00  0.00     0.190 A 
HETATM    6  O   UNK N   1      30.728  56.100  43.510  0.00  0.00    -0.287 OA
HETATM    7  C   UNK N   1      29.892  56.594  41.496  0.00  0.00     0.094 A 
HETATM    8  C   UNK N   1      29.559  56.171  40.203  0.00  0.00     0.090 A 
HETATM    9  O   UNK N   1      29.771  54.903  39.860  0.00  0.00    -0.309 OA
HETATM   10  C   UNK N   1      30.324  54.006  40.676  0.00  0.00     0.096 A 
HETATM   11  C   UNK N   1      30.534  52.714  40.196  0.00  0.00     0.079 A 
ENDROOT
BRANCH   8  12
HETATM   12  C   UNK N   1      28.986  57.108  39.190  0.00  0.00    -0.002 A 
HETATM   13  C   UNK N   1      29.537  58.396  39.044  0.00  0.00     0.017 A 
HETATM   14  C   UNK N   1      29.016  59.292  38.103  0.00  0.00     0.037 A 
HETATM   15  C   UNK N   1      27.925  58.922  37.306  0.00  0.00     0.065 A 
HETATM   16  C   UNK N   1      27.360  57.655  37.453  0.00  0.00     0.037 A 
HETATM   17  C   UNK N   1      27.884  56.750  38.379  0.00  0.00     0.017 A 
BRANCH  15  18
HETATM   18  O   UNK N   1      27.410  59.778  36.401  0.00  0.00    -0.361 OA
HETATM   19  H   UNK N   1      27.835  59.931  35.545  0.00  0.00     0.217 HD
ENDBRANCH  15  18
ENDBRANCH   8  12
BRANCH   3  20
HETATM   20  O   UNK N   1      31.692  53.598  44.105  0.00  0.00    -0.357 OA
HETATM   21  H   UNK N   1      32.402  54.164  44.415  0.00  0.00     0.218 HD
ENDBRANCH   3  20
BRANCH   1  22
HETATM   22  O   UNK N   1      31.360  50.476  40.555  0.00  0.00    -0.218 OA
BRANCH  22  23
HETATM   23  S   UNK N   1      30.505  49.082  41.026  0.00  0.00     0.245 S 
HETATM   24  O   UNK N   1      30.889  47.913  40.105  0.00  0.00    -0.579 OA
HETATM   25  O   UNK N   1      28.996  49.294  40.820  0.00  0.00    -0.579 OA
BRANCH  23  26
HETATM   26  O   UNK N   1      30.796  48.633  42.657  0.00  0.00    -0.273 OA
HETATM   27  H   UNK N   1      30.009  48.085  42.906  0.00  0.00     0.234 HD
ENDBRANCH  23  26
ENDBRANCH  22  23
ENDBRANCH   1  22
BRANCH   2  28
HETATM   28  O   UNK N   1      32.179  51.061  42.995  0.00  0.00    -0.351 OA
HETATM   29  C   UNK N   1      33.526  50.922  43.262  0.00  0.00     0.210 C 
ENDBRANCH   2  28
TORSDOF 7
ENDMDL
MODEL 8
REMARK VINA RESULT:      -4.9     13.989     16.125
REMARK  7 active torsions:
REMARK  status: ('A' for Active; 'I' for Inactive)
REMARK    1  A    between atoms: S_1  and  O_4 
REMARK    2  A    between atoms: S_1  and  O_28 
REMARK    3  A    between atoms: O_4  and  C_5 
REMARK    4  A    between atoms: C_6  and  O_7 
REMARK    5  A    between atoms: C_9  and  O_10 
REMARK    6  A    between atoms: C_16  and  C_20 
REMARK    7  A    between atoms: C_23  and  O_24 
ROOT
HETATM    1  C   UNK N   1      29.455  48.948  58.055  0.00  0.00     0.130 A 
HETATM    2  C   UNK N   1      28.111  48.814  58.419  0.00  0.00     0.137 A 
HETATM    3  C   UNK N   1      27.651  47.615  59.037  0.00  0.00     0.119 A 
HETATM    4  C   UNK N   1      28.572  46.527  59.235  0.00  0.00     0.084 A 
HETATM    5  C   UNK N   1      28.225  45.272  59.803  0.00  0.00     0.190 A 
HETATM    6  O   UNK N   1      27.102  45.027  60.195  0.00  0.00    -0.287 OA
HETATM    7  C   UNK N   1      29.186  44.271  59.905  0.00  0.00     0.094 A 
HETATM    8  C   UNK N   1      30.494  44.509  59.465  0.00  0.00     0.090 A 
HETATM    9  O   UNK N   1      30.804  45.704  58.967  0.00  0.00    -0.309 OA
HETATM   10  C   UNK N   1      29.920  46.692  58.827  0.00  0.00     0.096 A 
HETATM   11  C   UNK N   1      30.349  47.889  58.258  0.00  0.00     0.079 A 
ENDROOT
BRANCH   8  12
HETATM   12  C   UNK N   1      31.551  43.454  59.523  0.00  0.00    -0.002 A 
HETATM   13  C   UNK N   1      31.372  42.337  60.362  0.00  0.00     0.017 A 
HETATM   14  C   UNK N   1      32.349  41.337  60.434  0.00  0.00     0.037 A 
HETATM   15  C   UNK N   1      33.528  41.446  59.684  0.00  0.00     0.065 A 
HETATM   16  C   UNK N   1      33.723  42.556  58.862  0.00  0.00     0.037 A 
HETATM   17  C   UNK N   1      32.746  43.551  58.773  0.00  0.00     0.017 A 
BRANCH  15  18
HETATM   18  O   UNK N   1      34.478  40.492  59.750  0.00  0.00    -0.361 OA
HETATM   19  H   UNK N   1      35.419  40.713  59.797  0.00  0.00     0.217 HD
ENDBRANCH  15  18
ENDBRANCH   8  12
BRANCH   3  20
HETATM   20  O   UNK N   1      26.355  47.552  59.417  0.00  0.00    -0.357 OA
HETATM   21  H   UNK N   1      25.576  47.708  58.879  0.00  0.00     0.218 HD
ENDBRANCH   3  20
BRANCH   1  22
HETATM   22  O   UNK N   1      29.845  50.125  57.502  0.00  0.00    -0.218 OA
BRANCH  22  23
HETATM   23  S   UNK N   1      30.445  50.348  55.924  0.00  0.00     0.245 S 
HETATM   24  O   UNK N   1      31.322  51.609  55.887  0.00  0.00    -0.579 OA
HETATM   25  O   UNK N   1      29.285  50.620  54.952  0.00  0.00    -0.579 OA
BRANCH  23  26
HETATM   26  O   UNK N   1      31.358  49.010  55.356  0.00  0.00    -0.273 OA
HETATM   27  H   UNK N   1      30.896  48.218  55.733  0.00  0.00     0.234 HD
ENDBRANCH  23  26
ENDBRANCH  22  23
ENDBRANCH   1  22
BRANCH   2  28
HETATM   28  O   UNK N   1      27.297  49.878  58.147  0.00  0.00    -0.351 OA
HETATM   29  C   UNK N   1      26.495  50.077  57.042  0.00  0.00     0.210 C 
ENDBRANCH   2  28
TORSDOF 7
ENDMDL
MODEL 9
REMARK VINA RESULT:      -4.8     14.890     16.985
REMARK  7 active torsions:
REMARK  status: ('A' for Active; 'I' for Inactive)
REMARK    1  A    between atoms: S_1  and  O_4 
REMARK    2  A    between atoms: S_1  and  O_28 
REMARK    3  A    between atoms: O_4  and  C_5 
REMARK    4  A    between atoms: C_6  and  O_7 
REMARK    5  A    between atoms: C_9  and  O_10 
REMARK    6  A    between atoms: C_16  and  C_20 
REMARK    7  A    between atoms: C_23  and  O_24 
ROOT
HETATM    1  C   UNK N   1      29.127  41.635  57.038  0.00  0.00     0.130 A 
HETATM    2  C   UNK N   1      29.806  41.023  58.097  0.00  0.00     0.137 A 
HETATM    3  C   UNK N   1      30.369  41.813  59.139  0.00  0.00     0.119 A 
HETATM    4  C   UNK N   1      30.277  43.247  59.065  0.00  0.00     0.084 A 
HETATM    5  C   UNK N   1      30.831  44.140  60.020  0.00  0.00     0.190 A 
HETATM    6  O   UNK N   1      31.419  43.749  61.008  0.00  0.00    -0.287 OA
HETATM    7  C   UNK N   1      30.724  45.514  59.825  0.00  0.00     0.094 A 
HETATM    8  C   UNK N   1      30.055  46.011  58.699  0.00  0.00     0.090 A 
HETATM    9  O   UNK N   1      29.514  45.154  57.835  0.00  0.00    -0.309 OA
HETATM   10  C   UNK N   1      29.605  43.831  57.962  0.00  0.00     0.096 A 
HETATM   11  C   UNK N   1      29.032  43.030  56.975  0.00  0.00     0.079 A 
ENDROOT
BRANCH   8  12
HETATM   12  C   UNK N   1      29.944  47.476  58.430  0.00  0.00    -0.002 A 
HETATM   13  C   UNK N   1      29.401  48.324  59.415  0.00  0.00     0.017 A 
HETATM   14  C   UNK N   1      29.285  49.700  59.184  0.00  0.00     0.037 A 
HETATM   15  C   UNK N   1      29.692  50.248  57.961  0.00  0.00     0.065 A 
HETATM   16  C   UNK N   1      30.216  49.415  56.972  0.00  0.00     0.037 A 
HETATM   17  C   UNK N   1      30.349  48.043  57.200  0.00  0.00     0.017 A 
BRANCH  15  18
HETATM   18  O   UNK N   1      29.580  51.571  57.725  0.00  0.00    -0.361 OA
HETATM   19  H   UNK N   1      29.311  52.191  58.417  0.00  0.00     0.217 HD
ENDBRANCH  15  18
ENDBRANCH   8  12
BRANCH   3  20
HETATM   20  O   UNK N   1      30.971  41.173  60.167  0.00  0.00    -0.357 OA
HETATM   21  H   UNK N   1      30.971  41.419  61.094  0.00  0.00     0.218 HD
ENDBRANCH   3  20
BRANCH   1  22
HETATM   22  O   UNK N   1      28.579  40.831  56.090  0.00  0.00    -0.218 OA
BRANCH  22  23
HETATM   23  S   UNK N   1      29.392  40.135  54.766  0.00  0.00     0.245 S 
HETATM   24  O   UNK N   1      30.565  41.039  54.357  0.00  0.00    -0.579 OA
HETATM   25  O   UNK N   1      28.461  40.083  53.544  0.00  0.00    -0.579 OA
BRANCH  23  26
HETATM   26  O   UNK N   1      29.984  38.558  55.095  0.00  0.00    -0.273 OA
HETATM   27  H   UNK N   1      29.263  37.954  54.783  0.00  0.00     0.234 HD
ENDBRANCH  23  26
ENDBRANCH  22  23
ENDBRANCH   1  22
BRANCH   2  28
HETATM   28  O   UNK N   1      29.888  39.659  58.060  0.00  0.00    -0.351 OA
HETATM   29  C   UNK N   1      29.068  38.738  58.680  0.00  0.00     0.210 C 
ENDBRANCH   2  28
TORSDOF 7
ENDMDL
