MODEL 1
REMARK VINA RESULT:      -5.6      0.000      0.000
REMARK  11 active torsions:
REMARK  status: ('A' for Active; 'I' for Inactive)
REMARK    1  A    between atoms: C_4  and  O_5 
REMARK    2  A    between atoms: C_7  and  O_8 
REMARK    3  A    between atoms: C_10  and  O_11 
REMARK    4  A    between atoms: O_11  and  C_12 
REMARK    5  A    between atoms: C_12  and  C_13 
REMARK    6  A    between atoms: C_15  and  O_16 
REMARK    7  A    between atoms: C_18  and  O_19 
REMARK    8  A    between atoms: C_21  and  O_22 
REMARK    9  A    between atoms: C_24  and  O_25 
REMARK   10  A    between atoms: C_30  and  C_32 
REMARK   11  A    between atoms: C_35  and  O_36 
ROOT
HETATM    1  O   UNK N   1      31.277  43.136  60.658  0.00  0.00    -0.287 OA
HETATM    2  C   UNK N   1      30.723  43.667  59.717  0.00  0.00     0.190 A 
HETATM    3  C   UNK N   1      30.173  42.918  58.638  0.00  0.00     0.084 A 
HETATM    4  C   UNK N   1      30.204  41.484  58.531  0.00  0.00     0.119 A 
HETATM    5  C   UNK N   1      29.649  40.851  57.374  0.00  0.00     0.136 A 
HETATM    6  C   UNK N   1      29.073  41.629  56.355  0.00  0.00     0.107 A 
HETATM    7  C   UNK N   1      29.026  43.025  56.489  0.00  0.00     0.078 A 
HETATM    8  C   UNK N   1      29.557  43.660  57.602  0.00  0.00     0.096 A 
HETATM    9  O   UNK N   1      29.483  44.987  57.658  0.00  0.00    -0.309 OA
HETATM   10  C   UNK N   1      29.998  45.708  58.646  0.00  0.00     0.090 A 
HETATM   11  C   UNK N   1      30.643  45.058  59.704  0.00  0.00     0.094 A 
ENDROOT
BRANCH   6  12
HETATM   12  O   UNK N   1      28.567  41.006  55.248  0.00  0.00    -0.345 OA
BRANCH  12  13
HETATM   13  C   UNK N   1      27.216  40.794  55.019  0.00  0.00     0.210 C 
BRANCH  13  14
HETATM   14  C   UNK N   1      26.793  41.300  53.631  0.00  0.00     0.180 C 
HETATM   15  O   UNK N   1      27.844  41.049  52.709  0.00  0.00    -0.349 OA
HETATM   16  C   UNK N   1      27.445  41.395  51.390  0.00  0.00     0.288 C 
HETATM   17  C   UNK N   1      27.191  42.915  51.283  0.00  0.00     0.204 C 
HETATM   18  C   UNK N   1      26.102  43.312  52.287  0.00  0.00     0.183 C 
HETATM   19  C   UNK N   1      26.492  42.820  53.690  0.00  0.00     0.180 C 
BRANCH  16  20
HETATM   20  O   UNK N   1      28.474  41.048  50.503  0.00  0.00    -0.369 OA
HETATM   21  H   UNK N   1      28.396  40.072  50.344  0.00  0.00     0.212 HD
ENDBRANCH  16  20
BRANCH  17  22
HETATM   22  O   UNK N   1      26.766  43.259  49.989  0.00  0.00    -0.388 OA
HETATM   23  H   UNK N   1      26.472  44.206  50.018  0.00  0.00     0.210 HD
ENDBRANCH  17  22
BRANCH  18  24
HETATM   24  O   UNK N   1      25.948  44.709  52.275  0.00  0.00    -0.390 OA
HETATM   25  H   UNK N   1      25.350  44.932  51.515  0.00  0.00     0.210 HD
ENDBRANCH  18  24
BRANCH  19  26
HETATM   26  O   UNK N   1      25.442  43.063  54.593  0.00  0.00    -0.390 OA
HETATM   27  H   UNK N   1      25.607  43.953  54.999  0.00  0.00     0.210 HD
ENDBRANCH  19  26
ENDBRANCH  13  14
ENDBRANCH  12  13
ENDBRANCH   6  12
BRANCH   5  28
HETATM   28  O   UNK N   1      29.644  39.495  57.197  0.00  0.00    -0.351 OA
HETATM   29  C   UNK N   1      28.728  38.580  57.678  0.00  0.00     0.210 C 
ENDBRANCH   5  28
BRANCH   4  30
HETATM   30  O   UNK N   1      30.748  40.699  59.491  0.00  0.00    -0.357 OA
HETATM   31  H   UNK N   1      30.508  40.649  60.418  0.00  0.00     0.218 HD
ENDBRANCH   4  30
BRANCH  10  32
HETATM   32  C   UNK N   1      29.864  47.190  58.590  0.00  0.00    -0.002 A 
HETATM   33  C   UNK N   1      29.414  47.885  59.728  0.00  0.00     0.017 A 
HETATM   34  C   UNK N   1      29.289  49.277  59.707  0.00  0.00     0.037 A 
HETATM   35  C   UNK N   1      29.591  49.995  58.542  0.00  0.00     0.065 A 
HETATM   36  C   UNK N   1      30.021  49.313  57.402  0.00  0.00     0.037 A 
HETATM   37  C   UNK N   1      30.167  47.923  57.421  0.00  0.00     0.017 A 
BRANCH  35  38
HETATM   38  O   UNK N   1      29.468  51.337  58.509  0.00  0.00    -0.361 OA
HETATM   39  H   UNK N   1      30.103  51.894  58.037  0.00  0.00     0.217 HD
ENDBRANCH  35  38
ENDBRANCH  10  32
TORSDOF 11
ENDMDL
MODEL 2
REMARK VINA RESULT:      -5.5     18.473     22.446
REMARK  11 active torsions:
REMARK  status: ('A' for Active; 'I' for Inactive)
REMARK    1  A    between atoms: C_4  and  O_5 
REMARK    2  A    between atoms: C_7  and  O_8 
REMARK    3  A    between atoms: C_10  and  O_11 
REMARK    4  A    between atoms: O_11  and  C_12 
REMARK    5  A    between atoms: C_12  and  C_13 
REMARK    6  A    between atoms: C_15  and  O_16 
REMARK    7  A    between atoms: C_18  and  O_19 
REMARK    8  A    between atoms: C_21  and  O_22 
REMARK    9  A    between atoms: C_24  and  O_25 
REMARK   10  A    between atoms: C_30  and  C_32 
REMARK   11  A    between atoms: C_35  and  O_36 
ROOT
HETATM    1  O   UNK N   1      46.956  58.566  57.174  0.00  0.00    -0.287 OA
HETATM    2  C   UNK N   1      47.349  57.430  57.346  0.00  0.00     0.190 A 
HETATM    3  C   UNK N   1      46.848  56.602  58.390  0.00  0.00     0.084 A 
HETATM    4  C   UNK N   1      45.845  56.995  59.344  0.00  0.00     0.119 A 
HETATM    5  C   UNK N   1      45.454  56.082  60.372  0.00  0.00     0.136 A 
HETATM    6  C   UNK N   1      46.043  54.808  60.443  0.00  0.00     0.107 A 
HETATM    7  C   UNK N   1      46.999  54.430  59.488  0.00  0.00     0.078 A 
HETATM    8  C   UNK N   1      47.394  55.299  58.481  0.00  0.00     0.096 A 
HETATM    9  O   UNK N   1      48.309  54.875  57.615  0.00  0.00    -0.309 OA
HETATM   10  C   UNK N   1      48.801  55.631  56.640  0.00  0.00     0.090 A 
HETATM   11  C   UNK N   1      48.333  56.941  56.487  0.00  0.00     0.094 A 
ENDROOT
BRANCH   6  12
HETATM   12  O   UNK N   1      45.670  53.958  61.447  0.00  0.00    -0.345 OA
BRANCH  12  13
HETATM   13  C   UNK N   1      46.557  53.319  62.301  0.00  0.00     0.210 C 
BRANCH  13  14
HETATM   14  C   UNK N   1      46.353  51.796  62.289  0.00  0.00     0.180 C 
HETATM   15  O   UNK N   1      47.464  51.188  61.645  0.00  0.00    -0.349 OA
HETATM   16  C   UNK N   1      47.371  49.772  61.719  0.00  0.00     0.288 C 
HETATM   17  C   UNK N   1      46.143  49.269  60.928  0.00  0.00     0.204 C 
HETATM   18  C   UNK N   1      44.877  49.914  61.507  0.00  0.00     0.183 C 
HETATM   19  C   UNK N   1      45.046  51.441  61.535  0.00  0.00     0.180 C 
BRANCH  16  20
HETATM   20  O   UNK N   1      48.527  49.216  61.154  0.00  0.00    -0.369 OA
HETATM   21  H   UNK N   1      49.299  49.656  61.593  0.00  0.00     0.212 HD
ENDBRANCH  16  20
BRANCH  17  22
HETATM   22  O   UNK N   1      46.027  47.873  61.023  0.00  0.00    -0.388 OA
HETATM   23  H   UNK N   1      46.497  47.485  60.240  0.00  0.00     0.210 HD
ENDBRANCH  17  22
BRANCH  18  24
HETATM   24  O   UNK N   1      43.771  49.550  60.720  0.00  0.00    -0.390 OA
HETATM   25  H   UNK N   1      43.802  50.104  59.897  0.00  0.00     0.210 HD
ENDBRANCH  18  24
BRANCH  19  26
HETATM   26  O   UNK N   1      43.947  52.033  62.184  0.00  0.00    -0.390 OA
HETATM   27  H   UNK N   1      43.835  52.941  61.799  0.00  0.00     0.210 HD
ENDBRANCH  19  26
ENDBRANCH  13  14
ENDBRANCH  12  13
ENDBRANCH   6  12
BRANCH   5  28
HETATM   28  O   UNK N   1      44.512  56.382  61.317  0.00  0.00    -0.351 OA
HETATM   29  C   UNK N   1      44.694  57.044  62.515  0.00  0.00     0.210 C 
ENDBRANCH   5  28
BRANCH   4  30
HETATM   30  O   UNK N   1      45.253  58.212  59.308  0.00  0.00    -0.357 OA
HETATM   31  H   UNK N   1      44.615  58.576  59.924  0.00  0.00     0.218 HD
ENDBRANCH   4  30
BRANCH  10  32
HETATM   32  C   UNK N   1      49.835  55.049  55.741  0.00  0.00    -0.002 A 
HETATM   33  C   UNK N   1      50.551  53.913  56.159  0.00  0.00     0.017 A 
HETATM   34  C   UNK N   1      51.520  53.338  55.331  0.00  0.00     0.037 A 
HETATM   35  C   UNK N   1      51.804  53.904  54.081  0.00  0.00     0.065 A 
HETATM   36  C   UNK N   1      51.111  55.042  53.664  0.00  0.00     0.037 A 
HETATM   37  C   UNK N   1      50.127  55.610  54.479  0.00  0.00     0.017 A 
BRANCH  35  38
HETATM   38  O   UNK N   1      52.740  53.362  53.277  0.00  0.00    -0.361 OA
HETATM   39  H   UNK N   1      52.896  53.694  52.382  0.00  0.00     0.217 HD
ENDBRANCH  35  38
ENDBRANCH  10  32
TORSDOF 11
ENDMDL
MODEL 3
REMARK VINA RESULT:      -5.3     21.991     24.118
REMARK  11 active torsions:
REMARK  status: ('A' for Active; 'I' for Inactive)
REMARK    1  A    between atoms: C_4  and  O_5 
REMARK    2  A    between atoms: C_7  and  O_8 
REMARK    3  A    between atoms: C_10  and  O_11 
REMARK    4  A    between atoms: O_11  and  C_12 
REMARK    5  A    between atoms: C_12  and  C_13 
REMARK    6  A    between atoms: C_15  and  O_16 
REMARK    7  A    between atoms: C_18  and  O_19 
REMARK    8  A    between atoms: C_21  and  O_22 
REMARK    9  A    between atoms: C_24  and  O_25 
REMARK   10  A    between atoms: C_30  and  C_32 
REMARK   11  A    between atoms: C_35  and  O_36 
ROOT
HETATM    1  O   UNK N   1      49.078  57.665  53.984  0.00  0.00    -0.287 OA
HETATM    2  C   UNK N   1      48.942  56.941  54.949  0.00  0.00     0.190 A 
HETATM    3  C   UNK N   1      49.684  55.736  55.105  0.00  0.00     0.084 A 
HETATM    4  C   UNK N   1      50.657  55.240  54.168  0.00  0.00     0.119 A 
HETATM    5  C   UNK N   1      51.308  53.992  54.422  0.00  0.00     0.136 A 
HETATM    6  C   UNK N   1      51.001  53.262  55.582  0.00  0.00     0.107 A 
HETATM    7  C   UNK N   1      50.071  53.773  56.500  0.00  0.00     0.078 A 
HETATM    8  C   UNK N   1      49.427  54.981  56.275  0.00  0.00     0.096 A 
HETATM    9  O   UNK N   1      48.552  55.401  57.184  0.00  0.00    -0.309 OA
HETATM   10  C   UNK N   1      47.840  56.514  57.057  0.00  0.00     0.090 A 
HETATM   11  C   UNK N   1      48.015  57.313  55.921  0.00  0.00     0.094 A 
ENDROOT
BRANCH   6  12
HETATM   12  O   UNK N   1      51.620  52.061  55.796  0.00  0.00    -0.345 OA
BRANCH  12  13
HETATM   13  C   UNK N   1      52.426  51.780  56.888  0.00  0.00     0.210 C 
BRANCH  13  14
HETATM   14  C   UNK N   1      51.723  50.843  57.882  0.00  0.00     0.180 C 
HETATM   15  O   UNK N   1      52.348  50.965  59.152  0.00  0.00    -0.349 OA
HETATM   16  C   UNK N   1      51.650  50.203  60.128  0.00  0.00     0.288 C 
HETATM   17  C   UNK N   1      51.733  48.696  59.798  0.00  0.00     0.204 C 
HETATM   18  C   UNK N   1      51.132  48.454  58.408  0.00  0.00     0.183 C 
HETATM   19  C   UNK N   1      51.814  49.377  57.385  0.00  0.00     0.180 C 
BRANCH  16  20
HETATM   20  O   UNK N   1      52.245  50.422  61.378  0.00  0.00    -0.369 OA
HETATM   21  H   UNK N   1      52.958  51.097  61.240  0.00  0.00     0.212 HD
ENDBRANCH  16  20
BRANCH  17  22
HETATM   22  O   UNK N   1      51.019  47.940  60.741  0.00  0.00    -0.388 OA
HETATM   23  H   UNK N   1      51.598  47.845  61.541  0.00  0.00     0.210 HD
ENDBRANCH  17  22
BRANCH  18  24
HETATM   24  O   UNK N   1      51.308  47.105  58.055  0.00  0.00    -0.390 OA
HETATM   25  H   UNK N   1      50.449  46.641  58.235  0.00  0.00     0.210 HD
ENDBRANCH  18  24
BRANCH  19  26
HETATM   26  O   UNK N   1      51.181  49.258  56.135  0.00  0.00    -0.390 OA
HETATM   27  H   UNK N   1      51.528  49.989  55.561  0.00  0.00     0.210 HD
ENDBRANCH  19  26
ENDBRANCH  13  14
ENDBRANCH  12  13
ENDBRANCH   6  12
BRANCH   5  28
HETATM   28  O   UNK N   1      52.240  53.453  53.579  0.00  0.00    -0.351 OA
HETATM   29  C   UNK N   1      53.599  53.696  53.549  0.00  0.00     0.210 C 
ENDBRANCH   5  28
BRANCH   4  30
HETATM   30  O   UNK N   1      50.981  55.914  53.039  0.00  0.00    -0.357 OA
HETATM   31  H   UNK N   1      50.768  56.822  52.812  0.00  0.00     0.218 HD
ENDBRANCH   4  30
BRANCH  10  32
HETATM   32  C   UNK N   1      46.880  56.872  58.137  0.00  0.00    -0.002 A 
HETATM   33  C   UNK N   1      46.890  56.141  59.339  0.00  0.00     0.017 A 
HETATM   34  C   UNK N   1      46.008  56.461  60.374  0.00  0.00     0.037 A 
HETATM   35  C   UNK N   1      45.085  57.504  60.216  0.00  0.00     0.065 A 
HETATM   36  C   UNK N   1      45.056  58.226  59.021  0.00  0.00     0.037 A 
HETATM   37  C   UNK N   1      45.948  57.923  57.989  0.00  0.00     0.017 A 
BRANCH  35  38
HETATM   38  O   UNK N   1      44.226  57.819  61.206  0.00  0.00    -0.361 OA
HETATM   39  H   UNK N   1      44.517  58.277  62.006  0.00  0.00     0.217 HD
ENDBRANCH  35  38
ENDBRANCH  10  32
TORSDOF 11
ENDMDL
MODEL 4
REMARK VINA RESULT:      -5.2     14.889     17.270
REMARK  11 active torsions:
REMARK  status: ('A' for Active; 'I' for Inactive)
REMARK    1  A    between atoms: C_4  and  O_5 
REMARK    2  A    between atoms: C_7  and  O_8 
REMARK    3  A    between atoms: C_10  and  O_11 
REMARK    4  A    between atoms: O_11  and  C_12 
REMARK    5  A    between atoms: C_12  and  C_13 
REMARK    6  A    between atoms: C_15  and  O_16 
REMARK    7  A    between atoms: C_18  and  O_19 
REMARK    8  A    between atoms: C_21  and  O_22 
REMARK    9  A    between atoms: C_24  and  O_25 
REMARK   10  A    between atoms: C_30  and  C_32 
REMARK   11  A    between atoms: C_35  and  O_36 
ROOT
HETATM    1  O   UNK N   1      40.448  50.861  43.064  0.00  0.00    -0.287 OA
HETATM    2  C   UNK N   1      39.623  50.193  43.653  0.00  0.00     0.190 A 
HETATM    3  C   UNK N   1      39.979  49.304  44.708  0.00  0.00     0.084 A 
HETATM    4  C   UNK N   1      41.317  49.093  45.191  0.00  0.00     0.119 A 
HETATM    5  C   UNK N   1      41.548  48.141  46.233  0.00  0.00     0.136 A 
HETATM    6  C   UNK N   1      40.471  47.423  46.781  0.00  0.00     0.107 A 
HETATM    7  C   UNK N   1      39.169  47.662  46.318  0.00  0.00     0.078 A 
HETATM    8  C   UNK N   1      38.921  48.581  45.308  0.00  0.00     0.096 A 
HETATM    9  O   UNK N   1      37.662  48.750  44.915  0.00  0.00    -0.309 OA
HETATM   10  C   UNK N   1      37.307  49.563  43.927  0.00  0.00     0.090 A 
HETATM   11  C   UNK N   1      38.290  50.304  43.262  0.00  0.00     0.094 A 
ENDROOT
BRANCH   6  12
HETATM   12  O   UNK N   1      40.716  46.502  47.762  0.00  0.00    -0.345 OA
BRANCH  12  13
HETATM   13  C   UNK N   1      40.489  45.140  47.631  0.00  0.00     0.210 C 
BRANCH  13  14
HETATM   14  C   UNK N   1      41.584  44.464  46.792  0.00  0.00     0.180 C 
HETATM   15  O   UNK N   1      41.188  44.468  45.428  0.00  0.00    -0.349 OA
HETATM   16  C   UNK N   1      42.228  43.958  44.605  0.00  0.00     0.288 C 
HETATM   17  C   UNK N   1      42.491  42.470  44.926  0.00  0.00     0.204 C 
HETATM   18  C   UNK N   1      42.874  42.338  46.405  0.00  0.00     0.183 C 
HETATM   19  C   UNK N   1      41.798  43.006  47.276  0.00  0.00     0.180 C 
BRANCH  16  20
HETATM   20  O   UNK N   1      41.832  44.064  43.264  0.00  0.00    -0.369 OA
HETATM   21  H   UNK N   1      42.662  44.154  42.728  0.00  0.00     0.212 HD
ENDBRANCH  16  20
BRANCH  17  22
HETATM   22  O   UNK N   1      43.538  41.967  44.137  0.00  0.00    -0.388 OA
HETATM   23  H   UNK N   1      44.384  42.339  44.499  0.00  0.00     0.210 HD
ENDBRANCH  17  22
BRANCH  18  24
HETATM   24  O   UNK N   1      43.002  40.977  46.731  0.00  0.00    -0.390 OA
HETATM   25  H   UNK N   1      43.413  40.525  45.948  0.00  0.00     0.210 HD
ENDBRANCH  18  24
BRANCH  19  26
HETATM   26  O   UNK N   1      42.203  43.006  48.623  0.00  0.00    -0.390 OA
HETATM   27  H   UNK N   1      41.666  42.314  49.089  0.00  0.00     0.210 HD
ENDBRANCH  19  26
ENDBRANCH  13  14
ENDBRANCH  12  13
ENDBRANCH   6  12
BRANCH   5  28
HETATM   28  O   UNK N   1      42.790  47.881  46.743  0.00  0.00    -0.351 OA
HETATM   29  C   UNK N   1      43.237  48.087  48.033  0.00  0.00     0.210 C 
ENDBRANCH   5  28
BRANCH   4  30
HETATM   30  O   UNK N   1      42.380  49.765  44.690  0.00  0.00    -0.357 OA
HETATM   31  H   UNK N   1      42.385  50.613  44.242  0.00  0.00     0.218 HD
ENDBRANCH   4  30
BRANCH  10  32
HETATM   32  C   UNK N   1      35.865  49.657  43.567  0.00  0.00    -0.002 A 
HETATM   33  C   UNK N   1      35.231  50.913  43.583  0.00  0.00     0.017 A 
HETATM   34  C   UNK N   1      33.881  51.033  43.239  0.00  0.00     0.037 A 
HETATM   35  C   UNK N   1      33.138  49.896  42.894  0.00  0.00     0.065 A 
HETATM   36  C   UNK N   1      33.754  48.642  42.892  0.00  0.00     0.037 A 
HETATM   37  C   UNK N   1      35.108  48.518  43.216  0.00  0.00     0.017 A 
BRANCH  35  38
HETATM   38  O   UNK N   1      31.835  49.999  42.566  0.00  0.00    -0.361 OA
HETATM   39  H   UNK N   1      31.190  50.404  43.164  0.00  0.00     0.217 HD
ENDBRANCH  35  38
ENDBRANCH  10  32
TORSDOF 11
ENDMDL
MODEL 5
REMARK VINA RESULT:      -5.1     14.204     16.134
REMARK  11 active torsions:
REMARK  status: ('A' for Active; 'I' for Inactive)
REMARK    1  A    between atoms: C_4  and  O_5 
REMARK    2  A    between atoms: C_7  and  O_8 
REMARK    3  A    between atoms: C_10  and  O_11 
REMARK    4  A    between atoms: O_11  and  C_12 
REMARK    5  A    between atoms: C_12  and  C_13 
REMARK    6  A    between atoms: C_15  and  O_16 
REMARK    7  A    between atoms: C_18  and  O_19 
REMARK    8  A    between atoms: C_21  and  O_22 
REMARK    9  A    between atoms: C_24  and  O_25 
REMARK   10  A    between atoms: C_30  and  C_32 
REMARK   11  A    between atoms: C_35  and  O_36 
ROOT
HETATM    1  O   UNK N   1      43.979  48.218  47.062  0.00  0.00    -0.287 OA
HETATM    2  C   UNK N   1      42.867  47.817  47.341  0.00  0.00     0.190 A 
HETATM    3  C   UNK N   1      41.716  48.183  46.588  0.00  0.00     0.084 A 
HETATM    4  C   UNK N   1      41.724  49.050  45.440  0.00  0.00     0.119 A 
HETATM    5  C   UNK N   1      40.490  49.374  44.792  0.00  0.00     0.136 A 
HETATM    6  C   UNK N   1      39.282  48.842  45.275  0.00  0.00     0.107 A 
HETATM    7  C   UNK N   1      39.295  47.977  46.378  0.00  0.00     0.078 A 
HETATM    8  C   UNK N   1      40.479  47.648  47.022  0.00  0.00     0.096 A 
HETATM    9  O   UNK N   1      40.415  46.826  48.066  0.00  0.00    -0.309 OA
HETATM   10  C   UNK N   1      41.472  46.479  48.791  0.00  0.00     0.090 A 
HETATM   11  C   UNK N   1      42.733  46.977  48.446  0.00  0.00     0.094 A 
ENDROOT
BRANCH   6  12
HETATM   12  O   UNK N   1      38.112  49.181  44.654  0.00  0.00    -0.345 OA
BRANCH  12  13
HETATM   13  C   UNK N   1      37.835  48.935  43.317  0.00  0.00     0.210 C 
BRANCH  13  14
HETATM   14  C   UNK N   1      36.409  49.369  42.948  0.00  0.00     0.180 C 
HETATM   15  O   UNK N   1      36.085  50.551  43.666  0.00  0.00    -0.349 OA
HETATM   16  C   UNK N   1      34.818  51.051  43.262  0.00  0.00     0.288 C 
HETATM   17  C   UNK N   1      33.699  50.053  43.635  0.00  0.00     0.204 C 
HETATM   18  C   UNK N   1      33.980  48.708  42.954  0.00  0.00     0.183 C 
HETATM   19  C   UNK N   1      35.403  48.243  43.302  0.00  0.00     0.180 C 
BRANCH  16  20
HETATM   20  O   UNK N   1      34.579  52.262  43.927  0.00  0.00    -0.369 OA
HETATM   21  H   UNK N   1      34.754  52.098  44.889  0.00  0.00     0.212 HD
ENDBRANCH  16  20
BRANCH  17  22
HETATM   22  O   UNK N   1      32.447  50.526  43.211  0.00  0.00    -0.388 OA
HETATM   23  H   UNK N   1      32.605  51.117  42.430  0.00  0.00     0.210 HD
ENDBRANCH  17  22
BRANCH  18  24
HETATM   24  O   UNK N   1      33.031  47.765  43.381  0.00  0.00    -0.390 OA
HETATM   25  H   UNK N   1      33.144  47.657  44.362  0.00  0.00     0.210 HD
ENDBRANCH  18  24
BRANCH  19  26
HETATM   26  O   UNK N   1      35.718  47.079  42.578  0.00  0.00    -0.390 OA
HETATM   27  H   UNK N   1      35.117  47.055  41.789  0.00  0.00     0.210 HD
ENDBRANCH  19  26
ENDBRANCH  13  14
ENDBRANCH  12  13
ENDBRANCH   6  12
BRANCH   5  28
HETATM   28  O   UNK N   1      40.415  50.192  43.699  0.00  0.00    -0.351 OA
HETATM   29  C   UNK N   1      40.204  51.556  43.674  0.00  0.00     0.210 C 
ENDBRANCH   5  28
BRANCH   4  30
HETATM   30  O   UNK N   1      42.867  49.580  44.944  0.00  0.00    -0.357 OA
HETATM   31  H   UNK N   1      42.963  50.213  44.229  0.00  0.00     0.218 HD
ENDBRANCH   4  30
BRANCH  10  32
HETATM   32  C   UNK N   1      41.271  45.563  49.947  0.00  0.00    -0.002 A 
HETATM   33  C   UNK N   1      42.078  45.708  51.090  0.00  0.00     0.017 A 
HETATM   34  C   UNK N   1      41.905  44.870  52.195  0.00  0.00     0.037 A 
HETATM   35  C   UNK N   1      40.936  43.858  52.166  0.00  0.00     0.065 A 
HETATM   36  C   UNK N   1      40.140  43.694  51.030  0.00  0.00     0.037 A 
HETATM   37  C   UNK N   1      40.296  44.541  49.929  0.00  0.00     0.017 A 
BRANCH  35  38
HETATM   38  O   UNK N   1      40.763  43.040  53.223  0.00  0.00    -0.361 OA
HETATM   39  H   UNK N   1      40.119  43.235  53.919  0.00  0.00     0.217 HD
ENDBRANCH  35  38
ENDBRANCH  10  32
TORSDOF 11
ENDMDL
MODEL 6
REMARK VINA RESULT:      -5.0     19.399     22.443
REMARK  11 active torsions:
REMARK  status: ('A' for Active; 'I' for Inactive)
REMARK    1  A    between atoms: C_4  and  O_5 
REMARK    2  A    between atoms: C_7  and  O_8 
REMARK    3  A    between atoms: C_10  and  O_11 
REMARK    4  A    between atoms: O_11  and  C_12 
REMARK    5  A    between atoms: C_12  and  C_13 
REMARK    6  A    between atoms: C_15  and  O_16 
REMARK    7  A    between atoms: C_18  and  O_19 
REMARK    8  A    between atoms: C_21  and  O_22 
REMARK    9  A    between atoms: C_24  and  O_25 
REMARK   10  A    between atoms: C_30  and  C_32 
REMARK   11  A    between atoms: C_35  and  O_36 
ROOT
HETATM    1  O   UNK N   1      46.377  58.841  59.596  0.00  0.00    -0.287 OA
HETATM    2  C   UNK N   1      46.721  57.756  59.172  0.00  0.00     0.190 A 
HETATM    3  C   UNK N   1      46.423  56.544  59.856  0.00  0.00     0.084 A 
HETATM    4  C   UNK N   1      45.702  56.455  61.097  0.00  0.00     0.119 A 
HETATM    5  C   UNK N   1      45.501  55.175  61.705  0.00  0.00     0.136 A 
HETATM    6  C   UNK N   1      46.001  54.017  61.088  0.00  0.00     0.107 A 
HETATM    7  C   UNK N   1      46.678  54.119  59.863  0.00  0.00     0.078 A 
HETATM    8  C   UNK N   1      46.884  55.349  59.254  0.00  0.00     0.096 A 
HETATM    9  O   UNK N   1      47.540  55.370  58.097  0.00  0.00    -0.309 OA
HETATM   10  C   UNK N   1      47.840  56.487  57.446  0.00  0.00     0.090 A 
HETATM   11  C   UNK N   1      47.440  57.719  57.978  0.00  0.00     0.094 A 
ENDROOT
BRANCH   6  12
HETATM   12  O   UNK N   1      45.816  52.806  61.696  0.00  0.00    -0.345 OA
BRANCH  12  13
HETATM   13  C   UNK N   1      46.687  52.256  62.624  0.00  0.00     0.210 C 
BRANCH  13  14
HETATM   14  C   UNK N   1      47.384  51.004  62.071  0.00  0.00     0.180 C 
HETATM   15  O   UNK N   1      48.666  51.369  61.579  0.00  0.00    -0.349 OA
HETATM   16  C   UNK N   1      49.390  50.218  61.167  0.00  0.00     0.288 C 
HETATM   17  C   UNK N   1      48.692  49.542  59.965  0.00  0.00     0.204 C 
HETATM   18  C   UNK N   1      47.265  49.154  60.369  0.00  0.00     0.183 C 
HETATM   19  C   UNK N   1      46.536  50.385  60.929  0.00  0.00     0.180 C 
BRANCH  16  20
HETATM   20  O   UNK N   1      50.677  50.613  60.775  0.00  0.00    -0.369 OA
HETATM   21  H   UNK N   1      51.142  50.921  61.595  0.00  0.00     0.212 HD
ENDBRANCH  16  20
BRANCH  17  22
HETATM   22  O   UNK N   1      49.386  48.386  59.572  0.00  0.00    -0.388 OA
HETATM   23  H   UNK N   1      48.735  47.637  59.574  0.00  0.00     0.210 HD
ENDBRANCH  17  22
BRANCH  18  24
HETATM   24  O   UNK N   1      46.589  48.644  59.248  0.00  0.00    -0.390 OA
HETATM   25  H   UNK N   1      47.148  47.913  58.875  0.00  0.00     0.210 HD
ENDBRANCH  18  24
BRANCH  19  26
HETATM   26  O   UNK N   1      45.274  50.012  61.423  0.00  0.00    -0.390 OA
HETATM   27  H   UNK N   1      45.106  50.555  62.237  0.00  0.00     0.210 HD
ENDBRANCH  19  26
ENDBRANCH  13  14
ENDBRANCH  12  13
ENDBRANCH   6  12
BRANCH   5  28
HETATM   28  O   UNK N   1      44.830  55.009  62.885  0.00  0.00    -0.351 OA
HETATM   29  C   UNK N   1      43.465  54.923  63.080  0.00  0.00     0.210 C 
ENDBRANCH   5  28
BRANCH   4  30
HETATM   30  O   UNK N   1      45.203  57.547  61.723  0.00  0.00    -0.357 OA
HETATM   31  H   UNK N   1      44.515  57.583  62.390  0.00  0.00     0.218 HD
ENDBRANCH   4  30
BRANCH  10  32
HETATM   32  C   UNK N   1      48.592  56.384  56.165  0.00  0.00    -0.002 A 
HETATM   33  C   UNK N   1      49.550  55.366  56.009  0.00  0.00     0.017 A 
HETATM   34  C   UNK N   1      50.264  55.238  54.813  0.00  0.00     0.037 A 
HETATM   35  C   UNK N   1      50.045  56.140  53.763  0.00  0.00     0.065 A 
HETATM   36  C   UNK N   1      49.107  57.164  53.914  0.00  0.00     0.037 A 
HETATM   37  C   UNK N   1      48.378  57.286  55.100  0.00  0.00     0.017 A 
BRANCH  35  38
HETATM   38  O   UNK N   1      50.731  56.030  52.608  0.00  0.00    -0.361 OA
HETATM   39  H   UNK N   1      51.623  55.657  52.579  0.00  0.00     0.217 HD
ENDBRANCH  35  38
ENDBRANCH  10  32
TORSDOF 11
ENDMDL
MODEL 7
REMARK VINA RESULT:      -5.0     20.893     23.797
REMARK  11 active torsions:
REMARK  status: ('A' for Active; 'I' for Inactive)
REMARK    1  A    between atoms: C_4  and  O_5 
REMARK    2  A    between atoms: C_7  and  O_8 
REMARK    3  A    between atoms: C_10  and  O_11 
REMARK    4  A    between atoms: O_11  and  C_12 
REMARK    5  A    between atoms: C_12  and  C_13 
REMARK    6  A    between atoms: C_15  and  O_16 
REMARK    7  A    between atoms: C_18  and  O_19 
REMARK    8  A    between atoms: C_21  and  O_22 
REMARK    9  A    between atoms: C_24  and  O_25 
REMARK   10  A    between atoms: C_30  and  C_32 
REMARK   11  A    between atoms: C_35  and  O_36 
ROOT
HETATM    1  O   UNK N   1      48.742  57.057  55.400  0.00  0.00    -0.287 OA
HETATM    2  C   UNK N   1      48.782  56.103  56.150  0.00  0.00     0.190 A 
HETATM    3  C   UNK N   1      49.665  55.007  55.938  0.00  0.00     0.084 A 
HETATM    4  C   UNK N   1      50.590  54.894  54.842  0.00  0.00     0.119 A 
HETATM    5  C   UNK N   1      51.398  53.720  54.720  0.00  0.00     0.136 A 
HETATM    6  C   UNK N   1      51.288  52.689  55.668  0.00  0.00     0.107 A 
HETATM    7  C   UNK N   1      50.401  52.827  56.746  0.00  0.00     0.078 A 
HETATM    8  C   UNK N   1      49.608  53.957  56.886  0.00  0.00     0.096 A 
HETATM    9  O   UNK N   1      48.785  54.016  57.929  0.00  0.00    -0.309 OA
HETATM   10  C   UNK N   1      47.945  55.021  58.142  0.00  0.00     0.090 A 
HETATM   11  C   UNK N   1      47.918  56.095  57.244  0.00  0.00     0.094 A 
ENDROOT
BRANCH   6  12
HETATM   12  O   UNK N   1      52.054  51.566  55.520  0.00  0.00    -0.345 OA
BRANCH  12  13
HETATM   13  C   UNK N   1      53.074  51.194  56.384  0.00  0.00     0.210 C 
BRANCH  13  14
HETATM   14  C   UNK N   1      52.709  49.930  57.177  0.00  0.00     0.180 C 
HETATM   15  O   UNK N   1      51.588  49.309  56.564  0.00  0.00    -0.349 OA
HETATM   16  C   UNK N   1      51.293  48.072  57.198  0.00  0.00     0.288 C 
HETATM   17  C   UNK N   1      50.855  48.304  58.660  0.00  0.00     0.204 C 
HETATM   18  C   UNK N   1      51.979  49.030  59.411  0.00  0.00     0.183 C 
HETATM   19  C   UNK N   1      52.371  50.303  58.644  0.00  0.00     0.180 C 
BRANCH  16  20
HETATM   20  O   UNK N   1      50.242  47.452  56.507  0.00  0.00    -0.369 OA
HETATM   21  H   UNK N   1      49.455  48.049  56.591  0.00  0.00     0.212 HD
ENDBRANCH  16  20
BRANCH  17  22
HETATM   22  O   UNK N   1      50.592  47.083  59.302  0.00  0.00    -0.388 OA
HETATM   23  H   UNK N   1      51.375  46.494  59.147  0.00  0.00     0.210 HD
ENDBRANCH  17  22
BRANCH  18  24
HETATM   24  O   UNK N   1      51.541  49.346  60.708  0.00  0.00    -0.390 OA
HETATM   25  H   UNK N   1      50.725  49.904  60.614  0.00  0.00     0.210 HD
ENDBRANCH  18  24
BRANCH  19  26
HETATM   26  O   UNK N   1      53.487  50.904  59.252  0.00  0.00    -0.390 OA
HETATM   27  H   UNK N   1      53.143  51.509  59.959  0.00  0.00     0.210 HD
ENDBRANCH  19  26
ENDBRANCH  13  14
ENDBRANCH  12  13
ENDBRANCH   6  12
BRANCH   5  28
HETATM   28  O   UNK N   1      52.297  53.537  53.706  0.00  0.00    -0.351 OA
HETATM   29  C   UNK N   1      53.597  53.997  53.632  0.00  0.00     0.210 C 
ENDBRANCH   5  28
BRANCH   4  30
HETATM   30  O   UNK N   1      50.726  55.866  53.909  0.00  0.00    -0.357 OA
HETATM   31  H   UNK N   1      50.316  56.733  53.896  0.00  0.00     0.218 HD
ENDBRANCH   4  30
BRANCH  10  32
HETATM   32  C   UNK N   1      47.060  54.968  59.339  0.00  0.00    -0.002 A 
HETATM   33  C   UNK N   1      46.440  56.146  59.791  0.00  0.00     0.017 A 
HETATM   34  C   UNK N   1      45.596  56.124  60.905  0.00  0.00     0.037 A 
HETATM   35  C   UNK N   1      45.376  54.926  61.598  0.00  0.00     0.065 A 
HETATM   36  C   UNK N   1      46.001  53.753  61.168  0.00  0.00     0.037 A 
HETATM   37  C   UNK N   1      46.831  53.765  60.043  0.00  0.00     0.017 A 
BRANCH  35  38
HETATM   38  O   UNK N   1      44.569  54.893  62.677  0.00  0.00    -0.361 OA
HETATM   39  H   UNK N   1      43.976  54.148  62.847  0.00  0.00     0.217 HD
ENDBRANCH  35  38
ENDBRANCH  10  32
TORSDOF 11
ENDMDL
MODEL 8
REMARK VINA RESULT:      -4.9     18.686     21.419
REMARK  11 active torsions:
REMARK  status: ('A' for Active; 'I' for Inactive)
REMARK    1  A    between atoms: C_4  and  O_5 
REMARK    2  A    between atoms: C_7  and  O_8 
REMARK    3  A    between atoms: C_10  and  O_11 
REMARK    4  A    between atoms: O_11  and  C_12 
REMARK    5  A    between atoms: C_12  and  C_13 
REMARK    6  A    between atoms: C_15  and  O_16 
REMARK    7  A    between atoms: C_18  and  O_19 
REMARK    8  A    between atoms: C_21  and  O_22 
REMARK    9  A    between atoms: C_24  and  O_25 
REMARK   10  A    between atoms: C_30  and  C_32 
REMARK   11  A    between atoms: C_35  and  O_36 
ROOT
HETATM    1  O   UNK N   1      46.407  58.599  57.341  0.00  0.00    -0.287 OA
HETATM    2  C   UNK N   1      46.038  57.847  58.219  0.00  0.00     0.190 A 
HETATM    3  C   UNK N   1      46.771  56.680  58.578  0.00  0.00     0.084 A 
HETATM    4  C   UNK N   1      48.002  56.260  57.964  0.00  0.00     0.119 A 
HETATM    5  C   UNK N   1      48.622  55.043  58.390  0.00  0.00     0.136 A 
HETATM    6  C   UNK N   1      48.032  54.271  59.405  0.00  0.00     0.107 A 
HETATM    7  C   UNK N   1      46.847  54.710  60.013  0.00  0.00     0.078 A 
HETATM    8  C   UNK N   1      46.227  55.886  59.617  0.00  0.00     0.096 A 
HETATM    9  O   UNK N   1      45.102  56.237  60.233  0.00  0.00    -0.309 OA
HETATM   10  C   UNK N   1      44.395  57.313  59.909  0.00  0.00     0.090 A 
HETATM   11  C   UNK N   1      44.847  58.146  58.879  0.00  0.00     0.094 A 
ENDROOT
BRANCH   6  12
HETATM   12  O   UNK N   1      48.631  53.101  59.783  0.00  0.00    -0.345 OA
BRANCH  12  13
HETATM   13  C   UNK N   1      48.651  52.616  61.082  0.00  0.00     0.210 C 
BRANCH  13  14
HETATM   14  C   UNK N   1      48.135  51.170  61.153  0.00  0.00     0.180 C 
HETATM   15  O   UNK N   1      48.788  50.398  60.155  0.00  0.00    -0.349 OA
HETATM   16  C   UNK N   1      48.425  49.029  60.266  0.00  0.00     0.288 C 
HETATM   17  C   UNK N   1      46.919  48.843  59.975  0.00  0.00     0.204 C 
HETATM   18  C   UNK N   1      46.110  49.687  60.968  0.00  0.00     0.183 C 
HETATM   19  C   UNK N   1      46.601  51.143  60.925  0.00  0.00     0.180 C 
BRANCH  16  20
HETATM   20  O   UNK N   1      49.158  48.293  59.324  0.00  0.00    -0.369 OA
HETATM   21  H   UNK N   1      49.590  47.549  59.818  0.00  0.00     0.212 HD
ENDBRANCH  16  20
BRANCH  17  22
HETATM   22  O   UNK N   1      46.548  47.496  60.113  0.00  0.00    -0.388 OA
HETATM   23  H   UNK N   1      45.581  47.434  59.899  0.00  0.00     0.210 HD
ENDBRANCH  17  22
BRANCH  18  24
HETATM   24  O   UNK N   1      44.747  49.612  60.637  0.00  0.00    -0.390 OA
HETATM   25  H   UNK N   1      44.350  48.888  61.188  0.00  0.00     0.210 HD
ENDBRANCH  18  24
BRANCH  19  26
HETATM   26  O   UNK N   1      45.958  51.896  61.923  0.00  0.00    -0.390 OA
HETATM   27  H   UNK N   1      45.145  51.392  62.189  0.00  0.00     0.210 HD
ENDBRANCH  19  26
ENDBRANCH  13  14
ENDBRANCH  12  13
ENDBRANCH   6  12
BRANCH   5  28
HETATM   28  O   UNK N   1      49.789  54.575  57.854  0.00  0.00    -0.351 OA
HETATM   29  C   UNK N   1      49.958  53.854  56.688  0.00  0.00     0.210 C 
ENDBRANCH   5  28
BRANCH   4  30
HETATM   30  O   UNK N   1      48.602  56.976  56.985  0.00  0.00    -0.357 OA
HETATM   31  H   UNK N   1      49.466  56.833  56.593  0.00  0.00     0.218 HD
ENDBRANCH   4  30
BRANCH  10  32
HETATM   32  C   UNK N   1      43.141  57.594  60.662  0.00  0.00    -0.002 A 
HETATM   33  C   UNK N   1      42.916  56.946  61.891  0.00  0.00     0.017 A 
HETATM   34  C   UNK N   1      41.754  57.198  62.625  0.00  0.00     0.037 A 
HETATM   35  C   UNK N   1      40.787  58.085  62.132  0.00  0.00     0.065 A 
HETATM   36  C   UNK N   1      40.994  58.721  60.906  0.00  0.00     0.037 A 
HETATM   37  C   UNK N   1      42.162  58.487  60.175  0.00  0.00     0.017 A 
BRANCH  35  38
HETATM   38  O   UNK N   1      39.660  58.332  62.829  0.00  0.00    -0.361 OA
HETATM   39  H   UNK N   1      39.441  59.220  63.144  0.00  0.00     0.217 HD
ENDBRANCH  35  38
ENDBRANCH  10  32
TORSDOF 11
ENDMDL
MODEL 9
REMARK VINA RESULT:      -4.7     18.720     22.085
REMARK  11 active torsions:
REMARK  status: ('A' for Active; 'I' for Inactive)
REMARK    1  A    between atoms: C_4  and  O_5 
REMARK    2  A    between atoms: C_7  and  O_8 
REMARK    3  A    between atoms: C_10  and  O_11 
REMARK    4  A    between atoms: O_11  and  C_12 
REMARK    5  A    between atoms: C_12  and  C_13 
REMARK    6  A    between atoms: C_15  and  O_16 
REMARK    7  A    between atoms: C_18  and  O_19 
REMARK    8  A    between atoms: C_21  and  O_22 
REMARK    9  A    between atoms: C_24  and  O_25 
REMARK   10  A    between atoms: C_30  and  C_32 
REMARK   11  A    between atoms: C_35  and  O_36 
ROOT
HETATM    1  O   UNK N   1      42.416  59.606  58.615  0.00  0.00    -0.287 OA
HETATM    2  C   UNK N   1      42.812  58.746  59.375  0.00  0.00     0.190 A 
HETATM    3  C   UNK N   1      44.120  58.192  59.280  0.00  0.00     0.084 A 
HETATM    4  C   UNK N   1      45.104  58.567  58.300  0.00  0.00     0.119 A 
HETATM    5  C   UNK N   1      46.372  57.905  58.286  0.00  0.00     0.136 A 
HETATM    6  C   UNK N   1      46.652  56.899  59.226  0.00  0.00     0.107 A 
HETATM    7  C   UNK N   1      45.691  56.565  60.192  0.00  0.00     0.078 A 
HETATM    8  C   UNK N   1      44.455  57.193  60.226  0.00  0.00     0.096 A 
HETATM    9  O   UNK N   1      43.591  56.821  61.166  0.00  0.00    -0.309 OA
HETATM   10  C   UNK N   1      42.363  57.314  61.269  0.00  0.00     0.090 A 
HETATM   11  C   UNK N   1      41.939  58.292  60.362  0.00  0.00     0.094 A 
ENDROOT
BRANCH   6  12
HETATM   12  O   UNK N   1      47.862  56.264  59.181  0.00  0.00    -0.345 OA
BRANCH  12  13
HETATM   13  C   UNK N   1      48.032  54.894  59.307  0.00  0.00     0.210 C 
BRANCH  13  14
HETATM   14  C   UNK N   1      49.173  54.382  58.415  0.00  0.00     0.180 C 
HETATM   15  O   UNK N   1      48.756  54.437  57.058  0.00  0.00    -0.349 OA
HETATM   16  C   UNK N   1      49.826  54.084  56.192  0.00  0.00     0.288 C 
HETATM   17  C   UNK N   1      50.237  52.611  56.412  0.00  0.00     0.204 C 
HETATM   18  C   UNK N   1      50.655  52.422  57.875  0.00  0.00     0.183 C 
HETATM   19  C   UNK N   1      49.535  52.925  58.799  0.00  0.00     0.180 C 
BRANCH  16  20
HETATM   20  O   UNK N   1      49.400  54.237  54.865  0.00  0.00    -0.369 OA
HETATM   21  H   UNK N   1      49.804  55.079  54.531  0.00  0.00     0.212 HD
ENDBRANCH  16  20
BRANCH  17  22
HETATM   22  O   UNK N   1      51.315  52.265  55.581  0.00  0.00    -0.388 OA
HETATM   23  H   UNK N   1      52.107  52.138  56.164  0.00  0.00     0.210 HD
ENDBRANCH  17  22
BRANCH  18  24
HETATM   24  O   UNK N   1      50.920  51.062  58.109  0.00  0.00    -0.390 OA
HETATM   25  H   UNK N   1      51.245  50.675  57.254  0.00  0.00     0.210 HD
ENDBRANCH  18  24
BRANCH  19  26
HETATM   26  O   UNK N   1      49.961  52.877  60.138  0.00  0.00    -0.390 OA
HETATM   27  H   UNK N   1      50.218  51.938  60.330  0.00  0.00     0.210 HD
ENDBRANCH  19  26
ENDBRANCH  13  14
ENDBRANCH  12  13
ENDBRANCH   6  12
BRANCH   5  28
HETATM   28  O   UNK N   1      47.357  58.202  57.385  0.00  0.00    -0.351 OA
HETATM   29  C   UNK N   1      47.640  57.562  56.195  0.00  0.00     0.210 C 
ENDBRANCH   5  28
BRANCH   4  30
HETATM   30  O   UNK N   1      44.874  59.532  57.378  0.00  0.00    -0.357 OA
HETATM   31  H   UNK N   1      44.963  60.481  57.482  0.00  0.00     0.218 HD
ENDBRANCH   4  30
BRANCH  10  32
HETATM   32  C   UNK N   1      41.481  56.805  62.356  0.00  0.00    -0.002 A 
HETATM   33  C   UNK N   1      40.352  57.555  62.736  0.00  0.00     0.017 A 
HETATM   34  C   UNK N   1      39.501  57.097  63.745  0.00  0.00     0.037 A 
HETATM   35  C   UNK N   1      39.776  55.893  64.406  0.00  0.00     0.065 A 
HETATM   36  C   UNK N   1      40.902  55.149  64.048  0.00  0.00     0.037 A 
HETATM   37  C   UNK N   1      41.747  55.592  63.027  0.00  0.00     0.017 A 
BRANCH  35  38
HETATM   38  O   UNK N   1      38.965  55.444  65.385  0.00  0.00    -0.361 OA
HETATM   39  H   UNK N   1      39.310  54.969  66.154  0.00  0.00     0.217 HD
ENDBRANCH  35  38
ENDBRANCH  10  32
TORSDOF 11
ENDMDL
