MODEL 1
REMARK VINA RESULT:      -5.4      0.000      0.000
REMARK  5 active torsions:
REMARK  status: ('A' for Active; 'I' for Inactive)
REMARK    1  A    between atoms: C_5  and  C_7 
REMARK    2  A    between atoms: C_9  and  O_10 
REMARK    3  A    between atoms: C_16  and  C_17 
REMARK    4  A    between atoms: C_23  and  O_24 
REMARK    5  A    between atoms: C_26  and  O_27 
ROOT
HETATM    1  C   UNK N   1      30.188  43.336  59.350  0.00  0.00     0.028 C 
HETATM    2  C   UNK N   1      29.917  44.852  59.269  0.00  0.00    -0.001 C 
HETATM    3  C   UNK N   1      28.364  44.854  59.415  0.00  0.00     0.089 C 
HETATM    4  C   UNK N   1      27.917  46.308  59.397  0.00  0.00    -0.044 C 
HETATM    5  C   UNK N   1      27.340  46.894  60.473  0.00  0.00    -0.020 C 
HETATM    6  C   UNK N   1      27.012  48.361  60.533  0.00  0.00     0.033 C 
HETATM    7  C   UNK N   1      27.703  49.178  59.421  0.00  0.00     0.007 C 
HETATM    8  C   UNK N   1      27.564  48.494  58.028  0.00  0.00     0.027 C 
HETATM    9  C   UNK N   1      28.231  47.063  58.094  0.00  0.00     0.033 C 
HETATM   10  C   UNK N   1      29.770  46.992  57.855  0.00  0.00     0.011 C 
HETATM   11  C   UNK N   1      30.296  45.530  57.921  0.00  0.00     0.014 C 
HETATM   12  C   UNK N   1      28.256  49.403  56.959  0.00  0.00     0.052 C 
HETATM   13  C   UNK N   1      27.738  50.859  56.964  0.00  0.00     0.148 C 
HETATM   14  C   UNK N   1      27.911  51.486  58.367  0.00  0.00     0.147 C 
HETATM   15  C   UNK N   1      27.186  50.638  59.427  0.00  0.00     0.040 C 
HETATM   16  C   UNK N   1      28.172  43.953  60.645  0.00  0.00     0.044 C 
HETATM   17  C   UNK N   1      29.213  42.821  60.449  0.00  0.00     0.013 C 
HETATM   18  C   UNK N   1      30.674  45.586  60.429  0.00  0.00     0.019 C 
ENDROOT
BRANCH   1  19
HETATM   19  C   UNK N   1      31.627  42.872  59.454  0.00  0.00    -0.045 A 
HETATM   20  C   UNK N   1      32.229  42.231  60.692  0.00  0.00     0.213 A 
HETATM   21  O   UNK N   1      33.543  42.000  60.312  0.00  0.00    -0.314 OA
HETATM   22  C   UNK N   1      33.746  42.418  59.052  0.00  0.00     0.283 A 
HETATM   23  O   UNK N   1      34.817  42.342  58.477  0.00  0.00    -0.260 OA
HETATM   24  C   UNK N   1      32.543  42.966  58.500  0.00  0.00     0.087 A 
ENDBRANCH   1  19
BRANCH   3  25
HETATM   25  O   UNK N   1      27.759  44.202  58.317  0.00  0.00    -0.384 OA
HETATM   26  H   UNK N   1      27.297  43.396  58.669  0.00  0.00     0.211 HD
ENDBRANCH   3  25
BRANCH   8  27
HETATM   27  C   UNK N   1      26.109  48.282  57.587  0.00  0.00     0.241 C 
HETATM   28  O   UNK N   1      25.735  47.277  57.006  0.00  0.00    -0.306 OA
ENDBRANCH   8  27
BRANCH  13  29
HETATM   29  O   UNK N   1      26.392  50.895  56.568  0.00  0.00    -0.393 OA
HETATM   30  H   UNK N   1      26.035  51.778  56.846  0.00  0.00     0.210 HD
ENDBRANCH  13  29
BRANCH  14  31
HETATM   31  O   UNK N   1      29.279  51.579  58.675  0.00  0.00    -0.393 OA
HETATM   32  H   UNK N   1      29.520  50.746  59.159  0.00  0.00     0.210 HD
ENDBRANCH  14  31
TORSDOF 5
ENDMDL
MODEL 2
REMARK VINA RESULT:      -5.2     17.778     20.098
REMARK  5 active torsions:
REMARK  status: ('A' for Active; 'I' for Inactive)
REMARK    1  A    between atoms: C_5  and  C_7 
REMARK    2  A    between atoms: C_9  and  O_10 
REMARK    3  A    between atoms: C_16  and  C_17 
REMARK    4  A    between atoms: C_23  and  O_24 
REMARK    5  A    between atoms: C_26  and  O_27 
ROOT
HETATM    1  C   UNK N   1      31.075  52.946  40.455  0.00  0.00     0.028 C 
HETATM    2  C   UNK N   1      29.765  53.697  40.769  0.00  0.00    -0.001 C 
HETATM    3  C   UNK N   1      29.901  54.895  39.780  0.00  0.00     0.089 C 
HETATM    4  C   UNK N   1      28.644  55.740  39.929  0.00  0.00    -0.044 C 
HETATM    5  C   UNK N   1      27.756  55.887  38.917  0.00  0.00    -0.020 C 
HETATM    6  C   UNK N   1      26.441  56.601  39.076  0.00  0.00     0.033 C 
HETATM    7  C   UNK N   1      26.055  56.832  40.552  0.00  0.00     0.007 C 
HETATM    8  C   UNK N   1      27.251  57.390  41.382  0.00  0.00     0.027 C 
HETATM    9  C   UNK N   1      28.439  56.350  41.326  0.00  0.00     0.033 C 
HETATM   10  C   UNK N   1      28.405  55.184  42.360  0.00  0.00     0.011 C 
HETATM   11  C   UNK N   1      29.639  54.250  42.216  0.00  0.00     0.014 C 
HETATM   12  C   UNK N   1      26.764  57.630  42.850  0.00  0.00     0.052 C 
HETATM   13  C   UNK N   1      25.505  58.522  42.941  0.00  0.00     0.148 C 
HETATM   14  C   UNK N   1      24.354  57.913  42.107  0.00  0.00     0.147 C 
HETATM   15  C   UNK N   1      24.793  57.724  40.644  0.00  0.00     0.040 C 
HETATM   16  C   UNK N   1      30.253  54.173  38.470  0.00  0.00     0.044 C 
HETATM   17  C   UNK N   1      31.227  53.050  38.909  0.00  0.00     0.013 C 
HETATM   18  C   UNK N   1      28.539  52.762  40.482  0.00  0.00     0.019 C 
ENDROOT
BRANCH   1  19
HETATM   19  C   UNK N   1      31.273  51.571  41.060  0.00  0.00    -0.045 A 
HETATM   20  C   UNK N   1      31.880  51.321  42.429  0.00  0.00     0.213 A 
HETATM   21  O   UNK N   1      31.861  49.937  42.527  0.00  0.00    -0.314 OA
HETATM   22  C   UNK N   1      31.332  49.397  41.418  0.00  0.00     0.283 A 
HETATM   23  O   UNK N   1      31.209  48.198  41.241  0.00  0.00    -0.260 OA
HETATM   24  C   UNK N   1      30.954  50.418  40.487  0.00  0.00     0.087 A 
ENDBRANCH   1  19
BRANCH   3  25
HETATM   25  O   UNK N   1      31.008  55.703  40.125  0.00  0.00    -0.384 OA
HETATM   26  H   UNK N   1      31.427  55.303  40.933  0.00  0.00     0.211 HD
ENDBRANCH   3  25
BRANCH   8  27
HETATM   27  C   UNK N   1      27.803  58.720  40.852  0.00  0.00     0.241 C 
HETATM   28  O   UNK N   1      28.526  59.445  41.513  0.00  0.00    -0.306 OA
ENDBRANCH   8  27
BRANCH  13  29
HETATM   29  O   UNK N   1      25.801  59.822  42.503  0.00  0.00    -0.393 OA
HETATM   30  H   UNK N   1      25.028  60.124  41.958  0.00  0.00     0.210 HD
ENDBRANCH  13  29
BRANCH  14  31
HETATM   31  O   UNK N   1      23.974  56.679  42.661  0.00  0.00    -0.393 OA
HETATM   32  H   UNK N   1      23.355  56.253  42.012  0.00  0.00     0.210 HD
ENDBRANCH  14  31
TORSDOF 5
ENDMDL
MODEL 3
REMARK VINA RESULT:      -5.2      6.199      8.033
REMARK  5 active torsions:
REMARK  status: ('A' for Active; 'I' for Inactive)
REMARK    1  A    between atoms: C_5  and  C_7 
REMARK    2  A    between atoms: C_9  and  O_10 
REMARK    3  A    between atoms: C_16  and  C_17 
REMARK    4  A    between atoms: C_23  and  O_24 
REMARK    5  A    between atoms: C_26  and  O_27 
ROOT
HETATM    1  C   UNK N   1      29.096  41.265  57.818  0.00  0.00     0.028 C 
HETATM    2  C   UNK N   1      28.485  41.032  56.420  0.00  0.00    -0.001 C 
HETATM    3  C   UNK N   1      28.940  42.344  55.710  0.00  0.00     0.089 C 
HETATM    4  C   UNK N   1      28.448  42.265  54.272  0.00  0.00    -0.044 C 
HETATM    5  C   UNK N   1      29.303  42.205  53.224  0.00  0.00    -0.020 C 
HETATM    6  C   UNK N   1      28.850  41.991  51.806  0.00  0.00     0.033 C 
HETATM    7  C   UNK N   1      27.390  41.502  51.707  0.00  0.00     0.007 C 
HETATM    8  C   UNK N   1      26.438  42.335  52.619  0.00  0.00     0.027 C 
HETATM    9  C   UNK N   1      26.918  42.196  54.118  0.00  0.00     0.033 C 
HETATM   10  C   UNK N   1      26.411  40.951  54.908  0.00  0.00     0.011 C 
HETATM   11  C   UNK N   1      26.933  40.946  56.372  0.00  0.00     0.014 C 
HETATM   12  C   UNK N   1      24.979  41.800  52.430  0.00  0.00     0.052 C 
HETATM   13  C   UNK N   1      24.522  41.775  50.953  0.00  0.00     0.148 C 
HETATM   14  C   UNK N   1      25.497  40.929  50.103  0.00  0.00     0.147 C 
HETATM   15  C   UNK N   1      26.931  41.475  50.228  0.00  0.00     0.040 C 
HETATM   16  C   UNK N   1      30.435  42.381  56.063  0.00  0.00     0.044 C 
HETATM   17  C   UNK N   1      30.486  41.907  57.537  0.00  0.00     0.013 C 
HETATM   18  C   UNK N   1      29.080  39.723  55.796  0.00  0.00     0.019 C 
ENDROOT
BRANCH   1  19
HETATM   19  C   UNK N   1      29.070  40.117  58.807  0.00  0.00    -0.045 A 
HETATM   20  C   UNK N   1      27.806  39.571  59.447  0.00  0.00     0.213 A 
HETATM   21  O   UNK N   1      28.288  38.561  60.268  0.00  0.00    -0.314 OA
HETATM   22  C   UNK N   1      29.624  38.474  60.168  0.00  0.00     0.283 A 
HETATM   23  O   UNK N   1      30.300  37.675  60.792  0.00  0.00    -0.260 OA
HETATM   24  C   UNK N   1      30.128  39.448  59.246  0.00  0.00     0.087 A 
ENDBRANCH   1  19
BRANCH   3  25
HETATM   25  O   UNK N   1      28.338  43.472  56.312  0.00  0.00    -0.384 OA
HETATM   26  H   UNK N   1      28.292  44.187  55.624  0.00  0.00     0.211 HD
ENDBRANCH   3  25
BRANCH   8  27
HETATM   27  C   UNK N   1      26.430  43.834  52.296  0.00  0.00     0.241 C 
HETATM   28  O   UNK N   1      25.595  44.602  52.743  0.00  0.00    -0.306 OA
ENDBRANCH   8  27
BRANCH  13  29
HETATM   29  O   UNK N   1      24.434  43.083  50.452  0.00  0.00    -0.393 OA
HETATM   30  H   UNK N   1      23.953  43.026  49.586  0.00  0.00     0.210 HD
ENDBRANCH  13  29
BRANCH  14  31
HETATM   31  O   UNK N   1      25.452  39.590  50.528  0.00  0.00    -0.393 OA
HETATM   32  H   UNK N   1      26.039  39.523  51.326  0.00  0.00     0.210 HD
ENDBRANCH  14  31
TORSDOF 5
ENDMDL
MODEL 4
REMARK VINA RESULT:      -5.1      1.378      1.780
REMARK  5 active torsions:
REMARK  status: ('A' for Active; 'I' for Inactive)
REMARK    1  A    between atoms: C_5  and  C_7 
REMARK    2  A    between atoms: C_9  and  O_10 
REMARK    3  A    between atoms: C_16  and  C_17 
REMARK    4  A    between atoms: C_23  and  O_24 
REMARK    5  A    between atoms: C_26  and  O_27 
ROOT
HETATM    1  C   UNK N   1      29.777  44.161  58.456  0.00  0.00     0.028 C 
HETATM    2  C   UNK N   1      29.540  45.554  59.076  0.00  0.00    -0.001 C 
HETATM    3  C   UNK N   1      28.025  45.736  58.749  0.00  0.00     0.089 C 
HETATM    4  C   UNK N   1      27.600  47.073  59.338  0.00  0.00    -0.044 C 
HETATM    5  C   UNK N   1      26.697  47.158  60.343  0.00  0.00    -0.020 C 
HETATM    6  C   UNK N   1      26.358  48.450  61.036  0.00  0.00     0.033 C 
HETATM    7  C   UNK N   1      27.373  49.575  60.741  0.00  0.00     0.007 C 
HETATM    8  C   UNK N   1      27.705  49.671  59.221  0.00  0.00     0.027 C 
HETATM    9  C   UNK N   1      28.322  48.296  58.746  0.00  0.00     0.033 C 
HETATM   10  C   UNK N   1      29.854  48.100  58.960  0.00  0.00     0.011 C 
HETATM   11  C   UNK N   1      30.337  46.721  58.429  0.00  0.00     0.014 C 
HETATM   12  C   UNK N   1      28.705  50.855  59.007  0.00  0.00     0.052 C 
HETATM   13  C   UNK N   1      28.206  52.194  59.596  0.00  0.00     0.148 C 
HETATM   14  C   UNK N   1      27.902  52.039  61.104  0.00  0.00     0.147 C 
HETATM   15  C   UNK N   1      26.874  50.917  61.332  0.00  0.00     0.040 C 
HETATM   16  C   UNK N   1      27.443  44.401  59.241  0.00  0.00     0.044 C 
HETATM   17  C   UNK N   1      28.498  43.349  58.812  0.00  0.00     0.013 C 
HETATM   18  C   UNK N   1      29.866  45.513  60.609  0.00  0.00     0.019 C 
ENDROOT
BRANCH   1  19
HETATM   19  C   UNK N   1      31.104  43.479  58.722  0.00  0.00    -0.045 A 
HETATM   20  C   UNK N   1      31.282  42.293  59.653  0.00  0.00     0.213 A 
HETATM   21  O   UNK N   1      32.644  42.041  59.577  0.00  0.00    -0.314 OA
HETATM   22  C   UNK N   1      33.234  42.912  58.742  0.00  0.00     0.283 A 
HETATM   23  O   UNK N   1      34.429  42.919  58.503  0.00  0.00    -0.260 OA
HETATM   24  C   UNK N   1      32.271  43.821  58.194  0.00  0.00     0.087 A 
ENDBRANCH   1  19
BRANCH   3  25
HETATM   25  O   UNK N   1      27.820  45.794  57.352  0.00  0.00    -0.384 OA
HETATM   26  H   UNK N   1      28.354  45.063  56.943  0.00  0.00     0.211 HD
ENDBRANCH   3  25
BRANCH   8  27
HETATM   27  C   UNK N   1      26.479  49.933  58.337  0.00  0.00     0.241 C 
HETATM   28  O   UNK N   1      26.566  50.228  57.157  0.00  0.00    -0.306 OA
ENDBRANCH   8  27
BRANCH  13  29
HETATM   29  O   UNK N   1      27.066  52.631  58.903  0.00  0.00    -0.393 OA
HETATM   30  H   UNK N   1      26.522  51.823  58.708  0.00  0.00     0.210 HD
ENDBRANCH  13  29
BRANCH  14  31
HETATM   31  O   UNK N   1      29.091  51.751  61.796  0.00  0.00    -0.393 OA
HETATM   32  H   UNK N   1      29.551  51.033  61.287  0.00  0.00     0.210 HD
ENDBRANCH  14  31
TORSDOF 5
ENDMDL
MODEL 5
REMARK VINA RESULT:      -5.0     20.321     22.649
REMARK  5 active torsions:
REMARK  status: ('A' for Active; 'I' for Inactive)
REMARK    1  A    between atoms: C_5  and  C_7 
REMARK    2  A    between atoms: C_9  and  O_10 
REMARK    3  A    between atoms: C_16  and  C_17 
REMARK    4  A    between atoms: C_23  and  O_24 
REMARK    5  A    between atoms: C_26  and  O_27 
ROOT
HETATM    1  C   UNK N   1      46.387  57.746  60.267  0.00  0.00     0.028 C 
HETATM    2  C   UNK N   1      47.059  57.081  59.048  0.00  0.00    -0.001 C 
HETATM    3  C   UNK N   1      48.555  57.386  59.369  0.00  0.00     0.089 C 
HETATM    4  C   UNK N   1      49.386  56.751  58.264  0.00  0.00    -0.044 C 
HETATM    5  C   UNK N   1      50.247  55.735  58.509  0.00  0.00    -0.020 C 
HETATM    6  C   UNK N   1      50.979  54.998  57.421  0.00  0.00     0.033 C 
HETATM    7  C   UNK N   1      50.399  55.268  56.016  0.00  0.00     0.007 C 
HETATM    8  C   UNK N   1      50.148  56.787  55.775  0.00  0.00     0.027 C 
HETATM    9  C   UNK N   1      49.121  57.311  56.856  0.00  0.00     0.033 C 
HETATM   10  C   UNK N   1      47.607  57.120  56.539  0.00  0.00     0.011 C 
HETATM   11  C   UNK N   1      46.705  57.699  57.666  0.00  0.00     0.014 C 
HETATM   12  C   UNK N   1      49.600  56.974  54.321  0.00  0.00     0.052 C 
HETATM   13  C   UNK N   1      50.502  56.338  53.239  0.00  0.00     0.148 C 
HETATM   14  C   UNK N   1      50.707  54.833  53.526  0.00  0.00     0.147 C 
HETATM   15  C   UNK N   1      51.302  54.630  54.931  0.00  0.00     0.040 C 
HETATM   16  C   UNK N   1      48.653  56.930  60.834  0.00  0.00     0.044 C 
HETATM   17  C   UNK N   1      47.320  57.403  61.466  0.00  0.00     0.013 C 
HETATM   18  C   UNK N   1      46.707  55.553  59.019  0.00  0.00     0.019 C 
ENDROOT
BRANCH   1  19
HETATM   19  C   UNK N   1      44.904  57.515  60.478  0.00  0.00    -0.045 A 
HETATM   20  C   UNK N   1      44.314  56.816  61.690  0.00  0.00     0.213 A 
HETATM   21  O   UNK N   1      42.952  56.836  61.425  0.00  0.00    -0.314 OA
HETATM   22  C   UNK N   1      42.713  57.443  60.252  0.00  0.00     0.283 A 
HETATM   23  O   UNK N   1      41.600  57.585  59.777  0.00  0.00    -0.260 OA
HETATM   24  C   UNK N   1      43.937  57.879  59.648  0.00  0.00     0.087 A 
ENDBRANCH   1  19
BRANCH   3  25
HETATM   25  O   UNK N   1      48.796  58.778  59.346  0.00  0.00    -0.384 OA
HETATM   26  H   UNK N   1      48.590  59.100  58.429  0.00  0.00     0.211 HD
ENDBRANCH   3  25
BRANCH   8  27
HETATM   27  C   UNK N   1      51.410  57.650  55.911  0.00  0.00     0.241 C 
HETATM   28  O   UNK N   1      51.452  58.818  55.561  0.00  0.00    -0.306 OA
ENDBRANCH   8  27
BRANCH  13  29
HETATM   29  O   UNK N   1      51.736  57.005  53.186  0.00  0.00    -0.393 OA
HETATM   30  H   UNK N   1      52.294  56.634  53.919  0.00  0.00     0.210 HD
ENDBRANCH  13  29
BRANCH  14  31
HETATM   31  O   UNK N   1      49.476  54.163  53.422  0.00  0.00    -0.393 OA
HETATM   32  H   UNK N   1      49.529  53.373  54.021  0.00  0.00     0.210 HD
ENDBRANCH  14  31
TORSDOF 5
ENDMDL
MODEL 6
REMARK VINA RESULT:      -5.0     17.688     20.972
REMARK  5 active torsions:
REMARK  status: ('A' for Active; 'I' for Inactive)
REMARK    1  A    between atoms: C_5  and  C_7 
REMARK    2  A    between atoms: C_9  and  O_10 
REMARK    3  A    between atoms: C_16  and  C_17 
REMARK    4  A    between atoms: C_23  and  O_24 
REMARK    5  A    between atoms: C_26  and  O_27 
ROOT
HETATM    1  C   UNK N   1      31.119  54.045  41.830  0.00  0.00     0.028 C 
HETATM    2  C   UNK N   1      29.968  54.996  41.442  0.00  0.00    -0.001 C 
HETATM    3  C   UNK N   1      29.538  54.356  40.086  0.00  0.00     0.089 C 
HETATM    4  C   UNK N   1      28.356  55.162  39.568  0.00  0.00    -0.044 C 
HETATM    5  C   UNK N   1      27.122  54.620  39.437  0.00  0.00    -0.020 C 
HETATM    6  C   UNK N   1      25.908  55.424  39.058  0.00  0.00     0.033 C 
HETATM    7  C   UNK N   1      26.132  56.946  39.179  0.00  0.00     0.007 C 
HETATM    8  C   UNK N   1      27.482  57.386  38.535  0.00  0.00     0.027 C 
HETATM    9  C   UNK N   1      28.664  56.640  39.272  0.00  0.00     0.033 C 
HETATM   10  C   UNK N   1      29.200  57.291  40.583  0.00  0.00     0.011 C 
HETATM   11  C   UNK N   1      30.375  56.476  41.193  0.00  0.00     0.014 C 
HETATM   12  C   UNK N   1      27.610  58.940  38.668  0.00  0.00     0.052 C 
HETATM   13  C   UNK N   1      26.397  59.707  38.095  0.00  0.00     0.148 C 
HETATM   14  C   UNK N   1      25.092  59.235  38.777  0.00  0.00     0.147 C 
HETATM   15  C   UNK N   1      24.916  57.716  38.606  0.00  0.00     0.040 C 
HETATM   16  C   UNK N   1      29.412  52.874  40.474  0.00  0.00     0.044 C 
HETATM   17  C   UNK N   1      30.613  52.630  41.423  0.00  0.00     0.013 C 
HETATM   18  C   UNK N   1      28.859  54.961  42.550  0.00  0.00     0.019 C 
ENDROOT
BRANCH   1  19
HETATM   19  C   UNK N   1      31.716  54.175  43.216  0.00  0.00    -0.045 A 
HETATM   20  C   UNK N   1      31.596  53.117  44.299  0.00  0.00     0.213 A 
HETATM   21  O   UNK N   1      32.278  53.688  45.365  0.00  0.00    -0.314 OA
HETATM   22  C   UNK N   1      32.752  54.897  45.023  0.00  0.00     0.283 A 
HETATM   23  O   UNK N   1      33.379  55.617  45.779  0.00  0.00    -0.260 OA
HETATM   24  C   UNK N   1      32.407  55.212  43.668  0.00  0.00     0.087 A 
ENDBRANCH   1  19
BRANCH   3  25
HETATM   25  O   UNK N   1      30.579  54.455  39.136  0.00  0.00    -0.384 OA
HETATM   26  H   UNK N   1      31.427  54.223  39.599  0.00  0.00     0.211 HD
ENDBRANCH   3  25
BRANCH   8  27
HETATM   27  C   UNK N   1      27.599  57.035  37.047  0.00  0.00     0.241 C 
HETATM   28  O   UNK N   1      28.529  57.407  36.351  0.00  0.00    -0.306 OA
ENDBRANCH   8  27
BRANCH  13  29
HETATM   29  O   UNK N   1      26.324  59.526  36.705  0.00  0.00    -0.393 OA
HETATM   30  H   UNK N   1      25.937  58.624  36.554  0.00  0.00     0.210 HD
ENDBRANCH  13  29
BRANCH  14  31
HETATM   31  O   UNK N   1      25.128  59.567  40.142  0.00  0.00    -0.393 OA
HETATM   32  H   UNK N   1      26.022  59.965  40.316  0.00  0.00     0.210 HD
ENDBRANCH  14  31
TORSDOF 5
ENDMDL
MODEL 7
REMARK VINA RESULT:      -5.0      1.860      7.728
REMARK  5 active torsions:
REMARK  status: ('A' for Active; 'I' for Inactive)
REMARK    1  A    between atoms: C_5  and  C_7 
REMARK    2  A    between atoms: C_9  and  O_10 
REMARK    3  A    between atoms: C_16  and  C_17 
REMARK    4  A    between atoms: C_23  and  O_24 
REMARK    5  A    between atoms: C_26  and  O_27 
ROOT
HETATM    1  C   UNK N   1      27.683  50.169  58.207  0.00  0.00     0.028 C 
HETATM    2  C   UNK N   1      28.363  48.887  58.728  0.00  0.00    -0.001 C 
HETATM    3  C   UNK N   1      28.702  48.195  57.372  0.00  0.00     0.089 C 
HETATM    4  C   UNK N   1      29.433  46.902  57.702  0.00  0.00    -0.044 C 
HETATM    5  C   UNK N   1      30.725  46.699  57.350  0.00  0.00    -0.020 C 
HETATM    6  C   UNK N   1      31.513  45.492  57.778  0.00  0.00     0.033 C 
HETATM    7  C   UNK N   1      30.837  44.706  58.921  0.00  0.00     0.007 C 
HETATM    8  C   UNK N   1      29.318  44.480  58.649  0.00  0.00     0.027 C 
HETATM    9  C   UNK N   1      28.611  45.886  58.514  0.00  0.00     0.033 C 
HETATM   10  C   UNK N   1      28.161  46.579  59.836  0.00  0.00     0.011 C 
HETATM   11  C   UNK N   1      27.458  47.939  59.564  0.00  0.00     0.014 C 
HETATM   12  C   UNK N   1      28.722  43.647  59.832  0.00  0.00     0.052 C 
HETATM   13  C   UNK N   1      29.484  42.329  60.099  0.00  0.00     0.148 C 
HETATM   14  C   UNK N   1      30.979  42.617  60.370  0.00  0.00     0.147 C 
HETATM   15  C   UNK N   1      31.600  43.385  59.191  0.00  0.00     0.040 C 
HETATM   16  C   UNK N   1      29.375  49.343  56.602  0.00  0.00     0.044 C 
HETATM   17  C   UNK N   1      28.529  50.589  56.970  0.00  0.00     0.013 C 
HETATM   18  C   UNK N   1      29.619  49.268  59.587  0.00  0.00     0.019 C 
ENDROOT
BRANCH   1  19
HETATM   19  C   UNK N   1      27.360  51.262  59.206  0.00  0.00    -0.045 A 
HETATM   20  C   UNK N   1      26.114  51.285  60.073  0.00  0.00     0.213 A 
HETATM   21  O   UNK N   1      26.260  52.462  60.793  0.00  0.00    -0.314 OA
HETATM   22  C   UNK N   1      27.400  53.081  60.449  0.00  0.00     0.283 A 
HETATM   23  O   UNK N   1      27.765  54.142  60.925  0.00  0.00    -0.260 OA
HETATM   24  C   UNK N   1      28.104  52.332  59.452  0.00  0.00     0.087 A 
ENDBRANCH   1  19
BRANCH   3  25
HETATM   25  O   UNK N   1      27.520  47.858  56.675  0.00  0.00    -0.384 OA
HETATM   26  H   UNK N   1      26.764  48.309  57.136  0.00  0.00     0.211 HD
ENDBRANCH   3  25
BRANCH   8  27
HETATM   27  C   UNK N   1      29.032  43.715  57.350  0.00  0.00     0.241 C 
HETATM   28  O   UNK N   1      27.923  43.297  57.061  0.00  0.00    -0.306 OA
ENDBRANCH   8  27
BRANCH  13  29
HETATM   29  O   UNK N   1      29.337  41.457  59.009  0.00  0.00    -0.393 OA
HETATM   30  H   UNK N   1      29.956  41.777  58.301  0.00  0.00     0.210 HD
ENDBRANCH  13  29
BRANCH  14  31
HETATM   31  O   UNK N   1      31.106  43.364  61.554  0.00  0.00    -0.393 OA
HETATM   32  H   UNK N   1      31.096  44.322  61.290  0.00  0.00     0.210 HD
ENDBRANCH  14  31
TORSDOF 5
ENDMDL
MODEL 8
REMARK VINA RESULT:      -4.8     20.863     23.624
REMARK  5 active torsions:
REMARK  status: ('A' for Active; 'I' for Inactive)
REMARK    1  A    between atoms: C_5  and  C_7 
REMARK    2  A    between atoms: C_9  and  O_10 
REMARK    3  A    between atoms: C_16  and  C_17 
REMARK    4  A    between atoms: C_23  and  O_24 
REMARK    5  A    between atoms: C_26  and  O_27 
ROOT
HETATM    1  C   UNK N   1      51.690  53.097  54.962  0.00  0.00     0.028 C 
HETATM    2  C   UNK N   1      51.445  53.031  56.483  0.00  0.00    -0.001 C 
HETATM    3  C   UNK N   1      52.023  51.614  56.786  0.00  0.00     0.089 C 
HETATM    4  C   UNK N   1      51.898  51.394  58.286  0.00  0.00    -0.044 C 
HETATM    5  C   UNK N   1      52.983  51.262  59.084  0.00  0.00    -0.020 C 
HETATM    6  C   UNK N   1      52.896  51.179  60.584  0.00  0.00     0.033 C 
HETATM    7  C   UNK N   1      51.517  51.605  61.131  0.00  0.00     0.007 C 
HETATM    8  C   UNK N   1      50.349  50.950  60.332  0.00  0.00     0.027 C 
HETATM    9  C   UNK N   1      50.454  51.396  58.819  0.00  0.00     0.033 C 
HETATM   10  C   UNK N   1      49.804  52.762  58.441  0.00  0.00     0.011 C 
HETATM   11  C   UNK N   1      49.954  53.071  56.925  0.00  0.00     0.014 C 
HETATM   12  C   UNK N   1      48.996  51.402  60.973  0.00  0.00     0.052 C 
HETATM   13  C   UNK N   1      48.912  51.122  62.491  0.00  0.00     0.148 C 
HETATM   14  C   UNK N   1      50.088  51.803  63.229  0.00  0.00     0.147 C 
HETATM   15  C   UNK N   1      51.432  51.326  62.652  0.00  0.00     0.040 C 
HETATM   16  C   UNK N   1      53.386  51.683  56.079  0.00  0.00     0.044 C 
HETATM   17  C   UNK N   1      53.089  52.443  54.761  0.00  0.00     0.013 C 
HETATM   18  C   UNK N   1      52.209  54.202  57.192  0.00  0.00     0.019 C 
ENDROOT
BRANCH   1  19
HETATM   19  C   UNK N   1      51.456  54.418  54.258  0.00  0.00    -0.045 A 
HETATM   20  C   UNK N   1      52.565  55.341  53.785  0.00  0.00     0.213 A 
HETATM   21  O   UNK N   1      51.867  56.402  53.227  0.00  0.00    -0.314 OA
HETATM   22  C   UNK N   1      50.544  56.193  53.322  0.00  0.00     0.283 A 
HETATM   23  O   UNK N   1      49.704  56.977  52.918  0.00  0.00    -0.260 OA
HETATM   24  C   UNK N   1      50.274  54.942  53.967  0.00  0.00     0.087 A 
ENDBRANCH   1  19
BRANCH   3  25
HETATM   25  O   UNK N   1      51.262  50.616  56.136  0.00  0.00    -0.384 OA
HETATM   26  H   UNK N   1      51.038  49.925  56.814  0.00  0.00     0.211 HD
ENDBRANCH   3  25
BRANCH   8  27
HETATM   27  C   UNK N   1      50.380  49.416  60.341  0.00  0.00     0.241 C 
HETATM   28  O   UNK N   1      49.439  48.734  59.969  0.00  0.00    -0.306 OA
ENDBRANCH   8  27
BRANCH  13  29
HETATM   29  O   UNK N   1      48.913  49.738  62.727  0.00  0.00    -0.393 OA
HETATM   30  H   UNK N   1      49.814  49.508  63.074  0.00  0.00     0.210 HD
ENDBRANCH  13  29
BRANCH  14  31
HETATM   31  O   UNK N   1      49.976  53.198  63.103  0.00  0.00    -0.393 OA
HETATM   32  H   UNK N   1      50.897  53.548  62.974  0.00  0.00     0.210 HD
ENDBRANCH  14  31
TORSDOF 5
ENDMDL
MODEL 9
REMARK VINA RESULT:      -4.8      5.065      6.796
REMARK  5 active torsions:
REMARK  status: ('A' for Active; 'I' for Inactive)
REMARK    1  A    between atoms: C_5  and  C_7 
REMARK    2  A    between atoms: C_9  and  O_10 
REMARK    3  A    between atoms: C_16  and  C_17 
REMARK    4  A    between atoms: C_23  and  O_24 
REMARK    5  A    between atoms: C_26  and  O_27 
ROOT
HETATM    1  C   UNK N   1      30.338  40.894  59.107  0.00  0.00     0.028 C 
HETATM    2  C   UNK N   1      29.630  41.513  57.884  0.00  0.00    -0.001 C 
HETATM    3  C   UNK N   1      28.645  40.355  57.533  0.00  0.00     0.089 C 
HETATM    4  C   UNK N   1      27.816  40.821  56.345  0.00  0.00    -0.044 C 
HETATM    5  C   UNK N   1      26.480  41.018  56.437  0.00  0.00    -0.020 C 
HETATM    6  C   UNK N   1      25.657  41.605  55.323  0.00  0.00     0.033 C 
HETATM    7  C   UNK N   1      26.516  42.274  54.229  0.00  0.00     0.007 C 
HETATM    8  C   UNK N   1      27.715  41.374  53.803  0.00  0.00     0.027 C 
HETATM    9  C   UNK N   1      28.625  41.106  55.067  0.00  0.00     0.033 C 
HETATM   10  C   UNK N   1      29.696  42.187  55.407  0.00  0.00     0.011 C 
HETATM   11  C   UNK N   1      30.537  41.792  56.653  0.00  0.00     0.014 C 
HETATM   12  C   UNK N   1      28.507  42.107  52.670  0.00  0.00     0.052 C 
HETATM   13  C   UNK N   1      27.620  42.526  51.475  0.00  0.00     0.148 C 
HETATM   14  C   UNK N   1      26.456  43.422  51.957  0.00  0.00     0.147 C 
HETATM   15  C   UNK N   1      25.629  42.695  53.032  0.00  0.00     0.040 C 
HETATM   16  C   UNK N   1      28.018  40.060  58.905  0.00  0.00     0.044 C 
HETATM   17  C   UNK N   1      29.205  40.173  59.894  0.00  0.00     0.013 C 
HETATM   18  C   UNK N   1      28.926  42.850  58.303  0.00  0.00     0.019 C 
ENDROOT
BRANCH   1  19
HETATM   19  C   UNK N   1      31.265  41.778  59.917  0.00  0.00    -0.045 A 
HETATM   20  C   UNK N   1      32.488  42.477  59.351  0.00  0.00     0.213 A 
HETATM   21  O   UNK N   1      33.004  43.140  60.456  0.00  0.00    -0.314 OA
HETATM   22  C   UNK N   1      32.243  42.908  61.537  0.00  0.00     0.283 A 
HETATM   23  O   UNK N   1      32.480  43.363  62.643  0.00  0.00    -0.260 OA
HETATM   24  C   UNK N   1      31.141  42.054  61.208  0.00  0.00     0.087 A 
ENDBRANCH   1  19
BRANCH   3  25
HETATM   25  O   UNK N   1      29.356  39.199  57.138  0.00  0.00    -0.384 OA
HETATM   26  H   UNK N   1      29.973  39.465  56.407  0.00  0.00     0.211 HD
ENDBRANCH   3  25
BRANCH   8  27
HETATM   27  C   UNK N   1      27.295  40.000  53.264  0.00  0.00     0.241 C 
HETATM   28  O   UNK N   1      28.096  39.182  52.846  0.00  0.00    -0.306 OA
ENDBRANCH   8  27
BRANCH  13  29
HETATM   29  O   UNK N   1      27.129  41.388  50.816  0.00  0.00    -0.393 OA
HETATM   30  H   UNK N   1      27.223  41.558  49.842  0.00  0.00     0.210 HD
ENDBRANCH  13  29
BRANCH  14  31
HETATM   31  O   UNK N   1      26.971  44.623  52.474  0.00  0.00    -0.393 OA
HETATM   32  H   UNK N   1      27.951  44.608  52.311  0.00  0.00     0.210 HD
ENDBRANCH  14  31
TORSDOF 5
ENDMDL
