MODEL 1
REMARK VINA RESULT:      -7.9      0.000      0.000
REMARK  3 active torsions:
REMARK  status: ('A' for Active; 'I' for Inactive)
REMARK    1  A    between atoms: C_2  and  O_3 
REMARK    2  A    between atoms: C_2  and  C_5 
REMARK    3  A    between atoms: C_15  and  O_16 
ROOT
HETATM    1  C   UNK N   1      42.242  47.045  46.861  0.00  0.00     0.322 C 
HETATM    2  N   UNK N   1      40.844  46.992  46.387  0.00  0.00     0.108 N 
HETATM    3  C   UNK N   1      40.162  45.717  46.698  0.00  0.00     0.267 C 
HETATM    4  C   UNK N   1      40.404  45.328  48.132  0.00  0.00     0.050 A 
HETATM    5  N   UNK N   1      39.726  44.395  48.836  0.00  0.00    -0.357 N 
HETATM    6  C   UNK N   1      40.255  44.403  50.075  0.00  0.00     0.043 A 
HETATM    7  C   UNK N   1      41.272  45.321  50.163  0.00  0.00     0.002 A 
HETATM    8  C   UNK N   1      41.378  45.912  48.917  0.00  0.00    -0.018 A 
HETATM    9  C   UNK N   1      42.306  46.976  48.415  0.00  0.00     0.088 C 
HETATM   10  C   UNK N   1      41.988  45.501  51.350  0.00  0.00     0.051 A 
HETATM   11  C   UNK N   1      41.631  44.713  52.467  0.00  0.00     0.066 A 
HETATM   12  C   UNK N   1      40.569  43.776  52.367  0.00  0.00     0.039 A 
HETATM   13  C   UNK N   1      39.871  43.619  51.157  0.00  0.00     0.033 A 
HETATM   14  H   UNK N   1      38.938  43.797  48.500  0.00  0.00     0.166 HD
HETATM   15  C   UNK N   1      38.670  45.897  46.411  0.00  0.00     0.049 C 
HETATM   16  H   UNK N   1      40.816  47.103  45.346  0.00  0.00     0.318 HD
ENDROOT
BRANCH   1  17
HETATM   17  C   UNK N   1      42.916  48.300  46.339  0.00  0.00     0.174 C 
HETATM   18  O   UNK N   1      43.930  48.727  46.872  0.00  0.00    -0.648 OA
BRANCH  17  19
HETATM   19  O   UNK N   1      42.386  48.962  45.285  0.00  0.00    -0.775 OA
HETATM   20  H   UNK N   1      42.593  49.891  45.112  0.00  0.00     0.167 HD
ENDBRANCH  17  19
ENDBRANCH   1  17
BRANCH  11  21
HETATM   21  O   UNK N   1      42.307  44.853  53.625  0.00  0.00    -0.361 OA
HETATM   22  H   UNK N   1      43.201  44.496  53.737  0.00  0.00     0.217 HD
ENDBRANCH  11  21
TORSDOF 3
ENDMDL
MODEL 2
REMARK VINA RESULT:      -7.6      2.487      3.330
REMARK  3 active torsions:
REMARK  status: ('A' for Active; 'I' for Inactive)
REMARK    1  A    between atoms: C_2  and  O_3 
REMARK    2  A    between atoms: C_2  and  C_5 
REMARK    3  A    between atoms: C_15  and  O_16 
ROOT
HETATM    1  C   UNK N   1      40.901  44.690  46.347  0.00  0.00     0.322 C 
HETATM    2  N   UNK N   1      41.873  45.785  46.152  0.00  0.00     0.108 N 
HETATM    3  C   UNK N   1      41.829  46.813  47.214  0.00  0.00     0.267 C 
HETATM    4  C   UNK N   1      41.808  46.163  48.572  0.00  0.00     0.050 A 
HETATM    5  N   UNK N   1      42.047  46.769  49.756  0.00  0.00    -0.357 N 
HETATM    6  C   UNK N   1      41.953  45.808  50.695  0.00  0.00     0.043 A 
HETATM    7  C   UNK N   1      41.644  44.598  50.123  0.00  0.00     0.002 A 
HETATM    8  C   UNK N   1      41.542  44.821  48.762  0.00  0.00    -0.018 A 
HETATM    9  C   UNK N   1      41.225  43.882  47.639  0.00  0.00     0.088 C 
HETATM   10  C   UNK N   1      41.477  43.449  50.900  0.00  0.00     0.051 A 
HETATM   11  C   UNK N   1      41.644  43.562  52.298  0.00  0.00     0.066 A 
HETATM   12  C   UNK N   1      41.976  44.816  52.876  0.00  0.00     0.039 A 
HETATM   13  C   UNK N   1      42.134  45.953  52.066  0.00  0.00     0.033 A 
HETATM   14  H   UNK N   1      42.275  47.776  49.917  0.00  0.00     0.166 HD
HETATM   15  C   UNK N   1      43.050  47.719  47.046  0.00  0.00     0.049 C 
HETATM   16  H   UNK N   1      41.679  46.277  45.248  0.00  0.00     0.318 HD
ENDROOT
BRANCH   1  17
HETATM   17  C   UNK N   1      40.885  43.790  45.125  0.00  0.00     0.174 C 
HETATM   18  O   UNK N   1      41.931  43.396  44.631  0.00  0.00    -0.648 OA
BRANCH  17  19
HETATM   19  O   UNK N   1      39.705  43.432  44.568  0.00  0.00    -0.775 OA
HETATM   20  H   UNK N   1      39.661  43.013  43.697  0.00  0.00     0.167 HD
ENDBRANCH  17  19
ENDBRANCH   1  17
BRANCH  11  21
HETATM   21  O   UNK N   1      41.480  42.475  53.080  0.00  0.00    -0.361 OA
HETATM   22  H   UNK N   1      40.635  42.003  53.122  0.00  0.00     0.217 HD
ENDBRANCH  11  21
TORSDOF 3
ENDMDL
MODEL 3
REMARK VINA RESULT:      -7.5      3.190      5.973
REMARK  3 active torsions:
REMARK  status: ('A' for Active; 'I' for Inactive)
REMARK    1  A    between atoms: C_2  and  O_3 
REMARK    2  A    between atoms: C_2  and  C_5 
REMARK    3  A    between atoms: C_15  and  O_16 
ROOT
HETATM    1  C   UNK N   1      40.891  44.111  50.503  0.00  0.00     0.322 C 
HETATM    2  N   UNK N   1      39.587  44.647  50.064  0.00  0.00     0.108 N 
HETATM    3  C   UNK N   1      39.674  45.507  48.864  0.00  0.00     0.267 C 
HETATM    4  C   UNK N   1      40.524  44.851  47.809  0.00  0.00     0.050 A 
HETATM    5  N   UNK N   1      40.597  45.200  46.506  0.00  0.00    -0.357 N 
HETATM    6  C   UNK N   1      41.451  44.329  45.931  0.00  0.00     0.043 A 
HETATM    7  C   UNK N   1      41.932  43.438  46.859  0.00  0.00     0.002 A 
HETATM    8  C   UNK N   1      41.347  43.772  48.067  0.00  0.00    -0.018 A 
HETATM    9  C   UNK N   1      41.494  43.161  49.427  0.00  0.00     0.088 C 
HETATM   10  C   UNK N   1      42.849  42.444  46.504  0.00  0.00     0.051 A 
HETATM   11  C   UNK N   1      43.265  42.376  45.156  0.00  0.00     0.066 A 
HETATM   12  C   UNK N   1      42.750  43.295  44.204  0.00  0.00     0.039 A 
HETATM   13  C   UNK N   1      41.831  44.284  44.595  0.00  0.00     0.033 A 
HETATM   14  H   UNK N   1      40.086  45.976  46.028  0.00  0.00     0.166 HD
HETATM   15  C   UNK N   1      38.252  45.760  48.360  0.00  0.00     0.049 C 
HETATM   16  H   UNK N   1      39.167  45.232  50.824  0.00  0.00     0.318 HD
ENDROOT
BRANCH   1  17
HETATM   17  C   UNK N   1      40.735  43.403  51.836  0.00  0.00     0.174 C 
HETATM   18  O   UNK N   1      41.710  42.936  52.408  0.00  0.00    -0.648 OA
BRANCH  17  19
HETATM   19  O   UNK N   1      39.508  43.272  52.391  0.00  0.00    -0.775 OA
HETATM   20  H   UNK N   1      39.207  42.433  52.767  0.00  0.00     0.167 HD
ENDBRANCH  17  19
ENDBRANCH   1  17
BRANCH  11  21
HETATM   21  O   UNK N   1      44.156  41.436  44.780  0.00  0.00    -0.361 OA
HETATM   22  H   UNK N   1      43.872  40.579  44.429  0.00  0.00     0.217 HD
ENDBRANCH  11  21
TORSDOF 3
ENDMDL
MODEL 4
REMARK VINA RESULT:      -7.1      2.146      2.575
REMARK  3 active torsions:
REMARK  status: ('A' for Active; 'I' for Inactive)
REMARK    1  A    between atoms: C_2  and  O_3 
REMARK    2  A    between atoms: C_2  and  C_5 
REMARK    3  A    between atoms: C_15  and  O_16 
ROOT
HETATM    1  C   UNK N   1      40.669  47.299  46.048  0.00  0.00     0.322 C 
HETATM    2  N   UNK N   1      40.814  46.214  45.058  0.00  0.00     0.108 N 
HETATM    3  C   UNK N   1      41.795  45.180  45.452  0.00  0.00     0.267 C 
HETATM    4  C   UNK N   1      41.572  44.763  46.881  0.00  0.00     0.050 A 
HETATM    5  N   UNK N   1      42.080  43.667  47.486  0.00  0.00    -0.357 N 
HETATM    6  C   UNK N   1      41.599  43.676  48.744  0.00  0.00     0.043 A 
HETATM    7  C   UNK N   1      40.801  44.774  48.951  0.00  0.00     0.002 A 
HETATM    8  C   UNK N   1      40.786  45.480  47.762  0.00  0.00    -0.018 A 
HETATM    9  C   UNK N   1      40.095  46.755  47.390  0.00  0.00     0.088 C 
HETATM   10  C   UNK N   1      40.198  45.011  50.190  0.00  0.00     0.051 A 
HETATM   11  C   UNK N   1      40.426  44.082  51.228  0.00  0.00     0.066 A 
HETATM   12  C   UNK N   1      41.243  42.943  50.998  0.00  0.00     0.039 A 
HETATM   13  C   UNK N   1      41.836  42.736  49.741  0.00  0.00     0.033 A 
HETATM   14  H   UNK N   1      42.706  42.944  47.065  0.00  0.00     0.166 HD
HETATM   15  C   UNK N   1      41.644  43.996  44.493  0.00  0.00     0.049 C 
HETATM   16  H   UNK N   1      41.142  46.607  44.143  0.00  0.00     0.318 HD
ENDROOT
BRANCH   1  17
HETATM   17  C   UNK N   1      39.794  48.402  45.482  0.00  0.00     0.174 C 
HETATM   18  O   UNK N   1      39.166  49.140  46.228  0.00  0.00    -0.648 OA
BRANCH  17  19
HETATM   19  O   UNK N   1      39.693  48.562  44.143  0.00  0.00    -0.775 OA
HETATM   20  H   UNK N   1      40.185  48.004  43.525  0.00  0.00     0.167 HD
ENDBRANCH  17  19
ENDBRANCH   1  17
BRANCH  11  21
HETATM   21  O   UNK N   1      39.869  44.285  52.439  0.00  0.00    -0.361 OA
HETATM   22  H   UNK N   1      40.163  45.003  53.019  0.00  0.00     0.217 HD
ENDBRANCH  11  21
TORSDOF 3
ENDMDL
MODEL 5
REMARK VINA RESULT:      -7.0      2.114      3.203
REMARK  3 active torsions:
REMARK  status: ('A' for Active; 'I' for Inactive)
REMARK    1  A    between atoms: C_2  and  O_3 
REMARK    2  A    between atoms: C_2  and  C_5 
REMARK    3  A    between atoms: C_15  and  O_16 
ROOT
HETATM    1  C   UNK N   1      39.855  46.727  47.327  0.00  0.00     0.322 C 
HETATM    2  N   UNK N   1      41.264  47.074  47.055  0.00  0.00     0.108 N 
HETATM    3  C   UNK N   1      42.001  47.541  48.250  0.00  0.00     0.267 C 
HETATM    4  C   UNK N   1      41.745  46.623  49.416  0.00  0.00     0.050 A 
HETATM    5  N   UNK N   1      42.451  46.572  50.566  0.00  0.00    -0.357 N 
HETATM    6  C   UNK N   1      41.894  45.592  51.305  0.00  0.00     0.043 A 
HETATM    7  C   UNK N   1      40.831  45.029  50.642  0.00  0.00     0.002 A 
HETATM    8  C   UNK N   1      40.726  45.692  49.432  0.00  0.00    -0.018 A 
HETATM    9  C   UNK N   1      39.758  45.516  48.302  0.00  0.00     0.088 C 
HETATM   10  C   UNK N   1      40.080  43.999  51.215  0.00  0.00     0.051 A 
HETATM   11  C   UNK N   1      40.450  43.544  52.500  0.00  0.00     0.066 A 
HETATM   12  C   UNK N   1      41.559  44.126  53.170  0.00  0.00     0.039 A 
HETATM   13  C   UNK N   1      42.291  45.162  52.565  0.00  0.00     0.033 A 
HETATM   14  H   UNK N   1      43.275  47.157  50.830  0.00  0.00     0.166 HD
HETATM   15  C   UNK N   1      43.488  47.596  47.896  0.00  0.00     0.049 C 
HETATM   16  H   UNK N   1      41.311  47.848  46.351  0.00  0.00     0.318 HD
ENDROOT
BRANCH   1  17
HETATM   17  C   UNK N   1      39.132  46.442  46.024  0.00  0.00     0.174 C 
HETATM   18  O   UNK N   1      38.688  45.327  45.791  0.00  0.00    -0.648 OA
BRANCH  17  19
HETATM   19  O   UNK N   1      38.989  47.424  45.104  0.00  0.00    -0.775 OA
HETATM   20  H   UNK N   1      39.543  48.217  45.116  0.00  0.00     0.167 HD
ENDBRANCH  17  19
ENDBRANCH   1  17
BRANCH  11  21
HETATM   21  O   UNK N   1      39.741  42.559  53.088  0.00  0.00    -0.361 OA
HETATM   22  H   UNK N   1      40.176  41.792  53.491  0.00  0.00     0.217 HD
ENDBRANCH  11  21
TORSDOF 3
ENDMDL
MODEL 6
REMARK VINA RESULT:      -6.7      1.443      5.590
REMARK  3 active torsions:
REMARK  status: ('A' for Active; 'I' for Inactive)
REMARK    1  A    between atoms: C_2  and  O_3 
REMARK    2  A    between atoms: C_2  and  C_5 
REMARK    3  A    between atoms: C_15  and  O_16 
ROOT
HETATM    1  C   UNK N   1      41.045  45.203  51.216  0.00  0.00     0.322 C 
HETATM    2  N   UNK N   1      40.149  44.375  50.385  0.00  0.00     0.108 N 
HETATM    3  C   UNK N   1      39.436  45.139  49.339  0.00  0.00     0.267 C 
HETATM    4  C   UNK N   1      40.393  46.042  48.606  0.00  0.00     0.050 A 
HETATM    5  N   UNK N   1      40.165  46.666  47.429  0.00  0.00    -0.357 N 
HETATM    6  C   UNK N   1      41.296  47.338  47.137  0.00  0.00     0.043 A 
HETATM    7  C   UNK N   1      42.236  47.159  48.122  0.00  0.00     0.002 A 
HETATM    8  C   UNK N   1      41.659  46.335  49.071  0.00  0.00    -0.018 A 
HETATM    9  C   UNK N   1      42.202  45.802  50.362  0.00  0.00     0.088 C 
HETATM   10  C   UNK N   1      43.490  47.773  48.049  0.00  0.00     0.051 A 
HETATM   11  C   UNK N   1      43.769  48.582  46.926  0.00  0.00     0.066 A 
HETATM   12  C   UNK N   1      42.794  48.748  45.908  0.00  0.00     0.039 A 
HETATM   13  C   UNK N   1      41.541  48.119  46.013  0.00  0.00     0.033 A 
HETATM   14  H   UNK N   1      39.297  46.627  46.849  0.00  0.00     0.166 HD
HETATM   15  C   UNK N   1      38.774  44.137  48.390  0.00  0.00     0.049 C 
HETATM   16  H   UNK N   1      39.415  43.930  50.986  0.00  0.00     0.318 HD
ENDROOT
BRANCH   1  17
HETATM   17  C   UNK N   1      41.584  44.382  52.372  0.00  0.00     0.174 C 
HETATM   18  O   UNK N   1      42.286  44.900  53.228  0.00  0.00    -0.648 OA
BRANCH  17  19
HETATM   19  O   UNK N   1      41.301  43.061  52.451  0.00  0.00    -0.775 OA
HETATM   20  H   UNK N   1      40.558  42.671  51.970  0.00  0.00     0.167 HD
ENDBRANCH  17  19
ENDBRANCH   1  17
BRANCH  11  21
HETATM   21  O   UNK N   1      44.965  49.197  46.828  0.00  0.00    -0.361 OA
HETATM   22  H   UNK N   1      45.620  48.931  46.165  0.00  0.00     0.217 HD
ENDBRANCH  11  21
TORSDOF 3
ENDMDL
MODEL 7
REMARK VINA RESULT:      -6.3      3.549      7.206
REMARK  3 active torsions:
REMARK  status: ('A' for Active; 'I' for Inactive)
REMARK    1  A    between atoms: C_2  and  O_3 
REMARK    2  A    between atoms: C_2  and  C_5 
REMARK    3  A    between atoms: C_15  and  O_16 
ROOT
HETATM    1  C   UNK N   1      39.819  45.556  47.520  0.00  0.00     0.322 C 
HETATM    2  N   UNK N   1      40.822  46.290  48.317  0.00  0.00     0.108 N 
HETATM    3  C   UNK N   1      41.784  47.058  47.498  0.00  0.00     0.267 C 
HETATM    4  C   UNK N   1      41.060  47.843  46.436  0.00  0.00     0.050 A 
HETATM    5  N   UNK N   1      41.569  48.854  45.698  0.00  0.00    -0.357 N 
HETATM    6  C   UNK N   1      40.568  49.278  44.902  0.00  0.00     0.043 A 
HETATM    7  C   UNK N   1      39.431  48.538  45.116  0.00  0.00     0.002 A 
HETATM    8  C   UNK N   1      39.743  47.610  46.093  0.00  0.00    -0.018 A 
HETATM    9  C   UNK N   1      38.908  46.540  46.728  0.00  0.00     0.088 C 
HETATM   10  C   UNK N   1      38.259  48.781  44.394  0.00  0.00     0.051 A 
HETATM   11  C   UNK N   1      38.273  49.820  43.437  0.00  0.00     0.066 A 
HETATM   12  C   UNK N   1      39.451  50.586  43.234  0.00  0.00     0.039 A 
HETATM   13  C   UNK N   1      40.613  50.314  43.976  0.00  0.00     0.033 A 
HETATM   14  H   UNK N   1      42.537  49.245  45.742  0.00  0.00     0.166 HD
HETATM   15  C   UNK N   1      42.573  47.977  48.432  0.00  0.00     0.049 C 
HETATM   16  H   UNK N   1      41.384  45.618  48.891  0.00  0.00     0.318 HD
ENDROOT
BRANCH   1  17
HETATM   17  C   UNK N   1      38.999  44.655  48.424  0.00  0.00     0.174 C 
HETATM   18  O   UNK N   1      38.028  44.054  47.986  0.00  0.00    -0.648 OA
BRANCH  17  19
HETATM   19  O   UNK N   1      39.333  44.524  49.728  0.00  0.00    -0.775 OA
HETATM   20  H   UNK N   1      40.178  44.140  50.001  0.00  0.00     0.167 HD
ENDBRANCH  17  19
ENDBRANCH   1  17
BRANCH  11  21
HETATM   21  O   UNK N   1      37.163  50.075  42.714  0.00  0.00    -0.361 OA
HETATM   22  H   UNK N   1      36.980  50.959  42.361  0.00  0.00     0.217 HD
ENDBRANCH  11  21
TORSDOF 3
ENDMDL
MODEL 8
REMARK VINA RESULT:      -5.9     12.742     15.243
REMARK  3 active torsions:
REMARK  status: ('A' for Active; 'I' for Inactive)
REMARK    1  A    between atoms: C_2  and  O_3 
REMARK    2  A    between atoms: C_2  and  C_5 
REMARK    3  A    between atoms: C_15  and  O_16 
ROOT
HETATM    1  C   UNK N   1      28.982  53.258  40.571  0.00  0.00     0.322 C 
HETATM    2  N   UNK N   1      29.181  54.624  40.048  0.00  0.00     0.108 N 
HETATM    3  C   UNK N   1      29.396  55.638  41.103  0.00  0.00     0.267 C 
HETATM    4  C   UNK N   1      30.405  55.145  42.107  0.00  0.00     0.050 A 
HETATM    5  N   UNK N   1      31.047  55.892  43.031  0.00  0.00    -0.357 N 
HETATM    6  C   UNK N   1      31.872  55.051  43.685  0.00  0.00     0.043 A 
HETATM    7  C   UNK N   1      31.751  53.774  43.195  0.00  0.00     0.002 A 
HETATM    8  C   UNK N   1      30.805  53.826  42.187  0.00  0.00    -0.018 A 
HETATM    9  C   UNK N   1      30.260  52.749  41.301  0.00  0.00     0.088 C 
HETATM   10  C   UNK N   1      32.497  52.718  43.727  0.00  0.00     0.051 A 
HETATM   11  C   UNK N   1      33.390  53.002  44.784  0.00  0.00     0.066 A 
HETATM   12  C   UNK N   1      33.515  54.329  45.273  0.00  0.00     0.039 A 
HETATM   13  C   UNK N   1      32.748  55.367  44.717  0.00  0.00     0.033 A 
HETATM   14  H   UNK N   1      30.944  56.918  43.200  0.00  0.00     0.166 HD
HETATM   15  C   UNK N   1      29.861  56.931  40.430  0.00  0.00     0.049 C 
HETATM   16  H   UNK N   1      28.337  54.927  39.507  0.00  0.00     0.318 HD
ENDROOT
BRANCH   1  17
HETATM   17  C   UNK N   1      28.585  52.325  39.442  0.00  0.00     0.174 C 
HETATM   18  O   UNK N   1      28.625  52.704  38.281  0.00  0.00    -0.648 OA
BRANCH  17  19
HETATM   19  O   UNK N   1      28.168  51.069  39.721  0.00  0.00    -0.775 OA
HETATM   20  H   UNK N   1      27.493  50.627  39.188  0.00  0.00     0.167 HD
ENDBRANCH  17  19
ENDBRANCH   1  17
BRANCH  11  21
HETATM   21  O   UNK N   1      34.117  52.006  45.328  0.00  0.00    -0.361 OA
HETATM   22  H   UNK N   1      34.170  51.132  44.913  0.00  0.00     0.217 HD
ENDBRANCH  11  21
TORSDOF 3
ENDMDL
MODEL 9
REMARK VINA RESULT:      -5.9      3.102      3.454
REMARK  3 active torsions:
REMARK  status: ('A' for Active; 'I' for Inactive)
REMARK    1  A    between atoms: C_2  and  O_3 
REMARK    2  A    between atoms: C_2  and  C_5 
REMARK    3  A    between atoms: C_15  and  O_16 
ROOT
HETATM    1  C   UNK N   1      41.926  43.087  45.917  0.00  0.00     0.322 C 
HETATM    2  N   UNK N   1      41.776  44.525  45.617  0.00  0.00     0.108 N 
HETATM    3  C   UNK N   1      40.705  45.184  46.396  0.00  0.00     0.267 C 
HETATM    4  C   UNK N   1      40.804  44.805  47.850  0.00  0.00     0.050 A 
HETATM    5  N   UNK N   1      40.185  45.418  48.882  0.00  0.00    -0.357 N 
HETATM    6  C   UNK N   1      40.581  44.769  49.995  0.00  0.00     0.043 A 
HETATM    7  C   UNK N   1      41.434  43.740  49.679  0.00  0.00     0.002 A 
HETATM    8  C   UNK N   1      41.575  43.753  48.303  0.00  0.00    -0.018 A 
HETATM    9  C   UNK N   1      42.373  42.870  47.394  0.00  0.00     0.088 C 
HETATM   10  C   UNK N   1      41.968  42.909  50.669  0.00  0.00     0.051 A 
HETATM   11  C   UNK N   1      41.609  43.161  52.011  0.00  0.00     0.066 A 
HETATM   12  C   UNK N   1      40.736  44.235  52.326  0.00  0.00     0.039 A 
HETATM   13  C   UNK N   1      40.216  45.051  51.306  0.00  0.00     0.033 A 
HETATM   14  H   UNK N   1      39.542  46.240  48.838  0.00  0.00     0.166 HD
HETATM   15  C   UNK N   1      40.841  46.696  46.201  0.00  0.00     0.049 C 
HETATM   16  H   UNK N   1      41.538  44.656  44.606  0.00  0.00     0.318 HD
ENDROOT
BRANCH   1  17
HETATM   17  C   UNK N   1      42.909  42.457  44.948  0.00  0.00     0.174 C 
HETATM   18  O   UNK N   1      43.353  43.101  44.008  0.00  0.00    -0.648 OA
BRANCH  17  19
HETATM   19  O   UNK N   1      43.287  41.169  45.113  0.00  0.00    -0.775 OA
HETATM   20  H   UNK N   1      43.409  40.783  45.991  0.00  0.00     0.167 HD
ENDBRANCH  17  19
ENDBRANCH   1  17
BRANCH  11  21
HETATM   21  O   UNK N   1      42.097  42.372  52.991  0.00  0.00    -0.361 OA
HETATM   22  H   UNK N   1      42.879  41.817  52.853  0.00  0.00     0.217 HD
ENDBRANCH  11  21
TORSDOF 3
ENDMDL
