MODEL 1
REMARK VINA RESULT:      -6.2      0.000      0.000
REMARK  9 active torsions:
REMARK  status: ('A' for Active; 'I' for Inactive)
REMARK    1  A    between atoms: C_6  and  C_10 
REMARK    2  A    between atoms: C_7  and  O_8 
REMARK    3  A    between atoms: C_14  and  C_30 
REMARK    4  A    between atoms: C_15  and  C_20 
REMARK    5  A    between atoms: C_22  and  O_23 
REMARK    6  A    between atoms: C_25  and  O_26 
REMARK    7  A    between atoms: C_30  and  O_31 
REMARK    8  A    between atoms: C_34  and  O_35 
REMARK    9  A    between atoms: C_38  and  O_39 
ROOT
HETATM    1  C   UNK N   1      47.491  57.105  57.816  0.00  0.00    -0.023 A 
HETATM    2  C   UNK N   1      46.343  57.843  57.487  0.00  0.00     0.049 A 
HETATM    3  C   UNK N   1      45.343  58.025  58.434  0.00  0.00     0.103 A 
HETATM    4  O   UNK N   1      44.214  58.710  58.124  0.00  0.00    -0.338 OA
HETATM    5  C   UNK N   1      43.098  58.631  58.945  0.00  0.00     0.186 C 
HETATM    6  C   UNK N   1      43.571  58.730  60.419  0.00  0.00     0.193 C 
HETATM    7  O   UNK N   1      44.522  57.742  60.645  0.00  0.00    -0.336 OA
HETATM    8  C   UNK N   1      45.490  57.503  59.730  0.00  0.00     0.103 A 
HETATM    9  C   UNK N   1      46.619  56.754  60.061  0.00  0.00     0.040 A 
HETATM   10  C   UNK N   1      47.621  56.554  59.106  0.00  0.00     0.013 A 
ENDROOT
BRANCH   1  11
HETATM   11  C   UNK N   1      48.571  56.916  56.789  0.00  0.00     0.198 C 
HETATM   12  O   UNK N   1      48.918  55.576  56.727  0.00  0.00    -0.337 OA
HETATM   13  C   UNK N   1      49.793  55.111  55.798  0.00  0.00     0.089 A 
HETATM   14  C   UNK N   1      50.042  55.854  54.624  0.00  0.00     0.079 A 
HETATM   15  C   UNK N   1      50.456  53.904  56.023  0.00  0.00     0.074 A 
HETATM   16  C   UNK N   1      49.272  57.113  54.427  0.00  0.00     0.196 C 
HETATM   17  C   UNK N   1      50.997  55.390  53.698  0.00  0.00     0.085 A 
HETATM   18  O   UNK N   1      49.527  57.882  53.514  0.00  0.00    -0.289 OA
HETATM   19  C   UNK N   1      48.150  57.414  55.393  0.00  0.00     0.227 C 
HETATM   20  C   UNK N   1      51.671  54.182  53.945  0.00  0.00     0.074 A 
HETATM   21  C   UNK N   1      51.399  53.438  55.098  0.00  0.00     0.071 A 
BRANCH  19  22
HETATM   22  O   UNK N   1      47.810  58.779  55.395  0.00  0.00    -0.385 OA
HETATM   23  H   UNK N   1      48.589  59.280  55.756  0.00  0.00     0.210 HD
ENDBRANCH  19  22
BRANCH  17  24
HETATM   24  O   UNK N   1      51.263  56.095  52.578  0.00  0.00    -0.360 OA
HETATM   25  H   UNK N   1      50.777  55.948  51.754  0.00  0.00     0.217 HD
ENDBRANCH  17  24
BRANCH  21  26
HETATM   26  O   UNK N   1      52.054  52.279  55.316  0.00  0.00    -0.361 OA
HETATM   27  H   UNK N   1      52.376  51.733  54.585  0.00  0.00     0.217 HD
ENDBRANCH  21  26
ENDBRANCH   1  11
BRANCH   5  28
HETATM   28  C   UNK N   1      42.083  59.714  58.550  0.00  0.00     0.199 C 
BRANCH  28  29
HETATM   29  O   UNK N   1      41.508  59.446  57.300  0.00  0.00    -0.398 OA
HETATM   30  H   UNK N   1      42.125  59.812  56.614  0.00  0.00     0.209 HD
ENDBRANCH  28  29
ENDBRANCH   5  28
BRANCH   6  31
HETATM   31  C   UNK N   1      42.458  58.589  61.419  0.00  0.00    -0.024 A 
HETATM   32  C   UNK N   1      41.768  57.376  61.530  0.00  0.00     0.049 A 
HETATM   33  C   UNK N   1      40.733  57.222  62.473  0.00  0.00     0.101 A 
HETATM   34  C   UNK N   1      40.397  58.309  63.306  0.00  0.00     0.099 A 
HETATM   35  C   UNK N   1      41.088  59.520  63.187  0.00  0.00     0.040 A 
HETATM   36  C   UNK N   1      42.113  59.661  62.252  0.00  0.00     0.013 A 
BRANCH  33  37
HETATM   37  O   UNK N   1      40.053  56.051  62.598  0.00  0.00    -0.353 OA
HETATM   38  C   UNK N   1      40.511  54.944  63.287  0.00  0.00     0.210 C 
ENDBRANCH  33  37
BRANCH  34  39
HETATM   39  O   UNK N   1      39.415  58.204  64.226  0.00  0.00    -0.358 OA
HETATM   40  H   UNK N   1      39.418  58.714  65.048  0.00  0.00     0.218 HD
ENDBRANCH  34  39
ENDBRANCH   6  31
TORSDOF 9
ENDMDL
MODEL 2
REMARK VINA RESULT:      -6.1     15.020     20.351
REMARK  9 active torsions:
REMARK  status: ('A' for Active; 'I' for Inactive)
REMARK    1  A    between atoms: C_6  and  C_10 
REMARK    2  A    between atoms: C_7  and  O_8 
REMARK    3  A    between atoms: C_14  and  C_30 
REMARK    4  A    between atoms: C_15  and  C_20 
REMARK    5  A    between atoms: C_22  and  O_23 
REMARK    6  A    between atoms: C_25  and  O_26 
REMARK    7  A    between atoms: C_30  and  O_31 
REMARK    8  A    between atoms: C_34  and  O_35 
REMARK    9  A    between atoms: C_38  and  O_39 
ROOT
HETATM    1  C   UNK N   1      34.310  44.080  62.464  0.00  0.00    -0.023 A 
HETATM    2  C   UNK N   1      33.083  43.540  62.880  0.00  0.00     0.049 A 
HETATM    3  C   UNK N   1      32.386  42.680  62.041  0.00  0.00     0.103 A 
HETATM    4  O   UNK N   1      31.185  42.173  62.414  0.00  0.00    -0.338 OA
HETATM    5  C   UNK N   1      30.353  41.576  61.477  0.00  0.00     0.186 C 
HETATM    6  C   UNK N   1      31.222  40.669  60.565  0.00  0.00     0.193 C 
HETATM    7  O   UNK N   1      32.243  41.439  60.020  0.00  0.00    -0.336 OA
HETATM    8  C   UNK N   1      32.920  42.320  60.792  0.00  0.00     0.103 A 
HETATM    9  C   UNK N   1      34.131  42.865  60.363  0.00  0.00     0.040 A 
HETATM   10  C   UNK N   1      34.828  43.744  61.197  0.00  0.00     0.013 A 
ENDROOT
BRANCH   1  11
HETATM   11  C   UNK N   1      35.061  45.006  63.378  0.00  0.00     0.198 C 
HETATM   12  O   UNK N   1      36.423  44.798  63.227  0.00  0.00    -0.337 OA
HETATM   13  C   UNK N   1      37.336  45.584  63.854  0.00  0.00     0.089 A 
HETATM   14  C   UNK N   1      36.969  46.866  64.317  0.00  0.00     0.079 A 
HETATM   15  C   UNK N   1      38.631  45.107  64.054  0.00  0.00     0.074 A 
HETATM   16  C   UNK N   1      35.582  47.331  64.036  0.00  0.00     0.196 C 
HETATM   17  C   UNK N   1      37.909  47.646  65.020  0.00  0.00     0.085 A 
HETATM   18  O   UNK N   1      35.144  48.361  64.521  0.00  0.00    -0.289 OA
HETATM   19  C   UNK N   1      34.725  46.488  63.121  0.00  0.00     0.227 C 
HETATM   20  C   UNK N   1      39.205  47.146  65.230  0.00  0.00     0.074 A 
HETATM   21  C   UNK N   1      39.568  45.885  64.745  0.00  0.00     0.071 A 
BRANCH  19  22
HETATM   22  O   UNK N   1      33.355  46.760  63.286  0.00  0.00    -0.385 OA
HETATM   23  H   UNK N   1      33.002  46.117  63.957  0.00  0.00     0.210 HD
ENDBRANCH  19  22
BRANCH  17  24
HETATM   24  O   UNK N   1      37.571  48.867  65.487  0.00  0.00    -0.360 OA
HETATM   25  H   UNK N   1      37.760  49.674  64.987  0.00  0.00     0.217 HD
ENDBRANCH  17  24
BRANCH  21  26
HETATM   26  O   UNK N   1      40.818  45.424  64.954  0.00  0.00    -0.361 OA
HETATM   27  H   UNK N   1      41.598  45.947  64.720  0.00  0.00     0.217 HD
ENDBRANCH  21  26
ENDBRANCH   1  11
BRANCH   5  28
HETATM   28  C   UNK N   1      29.219  40.826  62.190  0.00  0.00     0.199 C 
BRANCH  28  29
HETATM   29  O   UNK N   1      29.714  39.774  62.974  0.00  0.00    -0.398 OA
HETATM   30  H   UNK N   1      30.605  40.057  63.307  0.00  0.00     0.209 HD
ENDBRANCH  28  29
ENDBRANCH   5  28
BRANCH   6  31
HETATM   31  C   UNK N   1      30.447  40.013  59.457  0.00  0.00    -0.024 A 
HETATM   32  C   UNK N   1      29.789  40.799  58.504  0.00  0.00     0.049 A 
HETATM   33  C   UNK N   1      29.072  40.199  57.450  0.00  0.00     0.101 A 
HETATM   34  C   UNK N   1      29.023  38.792  57.367  0.00  0.00     0.099 A 
HETATM   35  C   UNK N   1      29.679  38.012  58.325  0.00  0.00     0.040 A 
HETATM   36  C   UNK N   1      30.389  38.616  59.363  0.00  0.00     0.013 A 
BRANCH  33  37
HETATM   37  O   UNK N   1      28.428  40.945  56.512  0.00  0.00    -0.353 OA
HETATM   38  C   UNK N   1      29.045  41.577  55.449  0.00  0.00     0.210 C 
ENDBRANCH  33  37
BRANCH  34  39
HETATM   39  O   UNK N   1      28.351  38.176  56.371  0.00  0.00    -0.358 OA
HETATM   40  H   UNK N   1      28.801  37.690  55.666  0.00  0.00     0.218 HD
ENDBRANCH  34  39
ENDBRANCH   6  31
TORSDOF 9
ENDMDL
MODEL 3
REMARK VINA RESULT:      -5.8     16.553     21.556
REMARK  9 active torsions:
REMARK  status: ('A' for Active; 'I' for Inactive)
REMARK    1  A    between atoms: C_6  and  C_10 
REMARK    2  A    between atoms: C_7  and  O_8 
REMARK    3  A    between atoms: C_14  and  C_30 
REMARK    4  A    between atoms: C_15  and  C_20 
REMARK    5  A    between atoms: C_22  and  O_23 
REMARK    6  A    between atoms: C_25  and  O_26 
REMARK    7  A    between atoms: C_30  and  O_31 
REMARK    8  A    between atoms: C_34  and  O_35 
REMARK    9  A    between atoms: C_38  and  O_39 
ROOT
HETATM    1  C   UNK N   1      32.324  42.944  61.207  0.00  0.00    -0.023 A 
HETATM    2  C   UNK N   1      32.411  43.242  59.837  0.00  0.00     0.049 A 
HETATM    3  C   UNK N   1      31.618  42.552  58.928  0.00  0.00     0.103 A 
HETATM    4  O   UNK N   1      31.711  42.805  57.599  0.00  0.00    -0.338 OA
HETATM    5  C   UNK N   1      31.164  41.924  56.677  0.00  0.00     0.186 C 
HETATM    6  C   UNK N   1      29.766  41.488  57.192  0.00  0.00     0.193 C 
HETATM    7  O   UNK N   1      29.910  40.965  58.471  0.00  0.00    -0.336 OA
HETATM    8  C   UNK N   1      30.705  41.581  59.376  0.00  0.00     0.103 A 
HETATM    9  C   UNK N   1      30.624  41.268  60.733  0.00  0.00     0.040 A 
HETATM   10  C   UNK N   1      31.432  41.947  61.650  0.00  0.00     0.013 A 
ENDROOT
BRANCH   1  11
HETATM   11  C   UNK N   1      33.180  43.697  62.185  0.00  0.00     0.198 C 
HETATM   12  O   UNK N   1      34.420  43.944  61.617  0.00  0.00    -0.337 OA
HETATM   13  C   UNK N   1      35.349  44.710  62.244  0.00  0.00     0.089 A 
HETATM   14  C   UNK N   1      34.958  45.613  63.256  0.00  0.00     0.079 A 
HETATM   15  C   UNK N   1      36.694  44.581  61.895  0.00  0.00     0.074 A 
HETATM   16  C   UNK N   1      33.504  45.730  63.552  0.00  0.00     0.196 C 
HETATM   17  C   UNK N   1      35.940  46.356  63.941  0.00  0.00     0.085 A 
HETATM   18  O   UNK N   1      33.096  46.379  64.502  0.00  0.00    -0.289 OA
HETATM   19  C   UNK N   1      32.535  45.022  62.634  0.00  0.00     0.227 C 
HETATM   20  C   UNK N   1      37.292  46.204  63.591  0.00  0.00     0.074 A 
HETATM   21  C   UNK N   1      37.669  45.326  62.570  0.00  0.00     0.071 A 
BRANCH  19  22
HETATM   22  O   UNK N   1      31.282  44.825  63.242  0.00  0.00    -0.385 OA
HETATM   23  H   UNK N   1      30.804  44.127  62.721  0.00  0.00     0.210 HD
ENDBRANCH  19  22
BRANCH  17  24
HETATM   24  O   UNK N   1      35.588  47.211  64.924  0.00  0.00    -0.360 OA
HETATM   25  H   UNK N   1      35.954  47.142  65.817  0.00  0.00     0.217 HD
ENDBRANCH  17  24
BRANCH  21  26
HETATM   26  O   UNK N   1      38.972  45.197  62.247  0.00  0.00    -0.361 OA
HETATM   27  H   UNK N   1      39.559  45.963  62.190  0.00  0.00     0.217 HD
ENDBRANCH  21  26
ENDBRANCH   1  11
BRANCH   5  28
HETATM   28  C   UNK N   1      31.131  42.577  55.288  0.00  0.00     0.199 C 
BRANCH  28  29
HETATM   29  O   UNK N   1      31.849  41.822  54.350  0.00  0.00    -0.398 OA
HETATM   30  H   UNK N   1      31.903  40.896  54.705  0.00  0.00     0.209 HD
ENDBRANCH  28  29
ENDBRANCH   5  28
BRANCH   6  31
HETATM   31  C   UNK N   1      29.091  40.473  56.312  0.00  0.00    -0.024 A 
HETATM   32  C   UNK N   1      29.599  39.172  56.229  0.00  0.00     0.049 A 
HETATM   33  C   UNK N   1      28.969  38.205  55.422  0.00  0.00     0.101 A 
HETATM   34  C   UNK N   1      27.816  38.565  54.693  0.00  0.00     0.099 A 
HETATM   35  C   UNK N   1      27.316  39.870  54.777  0.00  0.00     0.040 A 
HETATM   36  C   UNK N   1      27.946  40.819  55.581  0.00  0.00     0.013 A 
BRANCH  33  37
HETATM   37  O   UNK N   1      29.445  36.934  55.330  0.00  0.00    -0.353 OA
HETATM   38  C   UNK N   1      30.635  36.581  54.725  0.00  0.00     0.210 C 
ENDBRANCH  33  37
BRANCH  34  39
HETATM   39  O   UNK N   1      27.179  37.669  53.910  0.00  0.00    -0.358 OA
HETATM   40  H   UNK N   1      26.763  37.917  53.073  0.00  0.00     0.218 HD
ENDBRANCH  34  39
ENDBRANCH   6  31
TORSDOF 9
ENDMDL
MODEL 4
REMARK VINA RESULT:      -5.8     17.009     21.934
REMARK  9 active torsions:
REMARK  status: ('A' for Active; 'I' for Inactive)
REMARK    1  A    between atoms: C_6  and  C_10 
REMARK    2  A    between atoms: C_7  and  O_8 
REMARK    3  A    between atoms: C_14  and  C_30 
REMARK    4  A    between atoms: C_15  and  C_20 
REMARK    5  A    between atoms: C_22  and  O_23 
REMARK    6  A    between atoms: C_25  and  O_26 
REMARK    7  A    between atoms: C_30  and  O_31 
REMARK    8  A    between atoms: C_34  and  O_35 
REMARK    9  A    between atoms: C_38  and  O_39 
ROOT
HETATM    1  C   UNK N   1      32.358  42.882  59.751  0.00  0.00    -0.023 A 
HETATM    2  C   UNK N   1      31.337  41.923  59.656  0.00  0.00     0.049 A 
HETATM    3  C   UNK N   1      30.612  41.799  58.478  0.00  0.00     0.103 A 
HETATM    4  O   UNK N   1      29.602  40.899  58.379  0.00  0.00    -0.338 OA
HETATM    5  C   UNK N   1      28.687  40.981  57.338  0.00  0.00     0.186 C 
HETATM    6  C   UNK N   1      29.466  41.278  56.029  0.00  0.00     0.193 C 
HETATM    7  O   UNK N   1      30.227  42.425  56.218  0.00  0.00    -0.336 OA
HETATM    8  C   UNK N   1      30.917  42.607  57.369  0.00  0.00     0.103 A 
HETATM    9  C   UNK N   1      31.919  43.573  57.459  0.00  0.00     0.040 A 
HETATM   10  C   UNK N   1      32.640  43.713  58.648  0.00  0.00     0.013 A 
ENDROOT
BRANCH   1  11
HETATM   11  C   UNK N   1      33.142  43.007  61.026  0.00  0.00     0.198 C 
HETATM   12  O   UNK N   1      34.278  43.766  60.796  0.00  0.00    -0.337 OA
HETATM   13  C   UNK N   1      35.108  44.130  61.807  0.00  0.00     0.089 A 
HETATM   14  C   UNK N   1      34.643  44.130  63.140  0.00  0.00     0.079 A 
HETATM   15  C   UNK N   1      36.426  44.483  61.521  0.00  0.00     0.074 A 
HETATM   16  C   UNK N   1      33.214  43.781  63.372  0.00  0.00     0.196 C 
HETATM   17  C   UNK N   1      35.531  44.450  64.186  0.00  0.00     0.085 A 
HETATM   18  O   UNK N   1      32.770  43.621  64.498  0.00  0.00    -0.289 OA
HETATM   19  C   UNK N   1      32.316  43.633  62.166  0.00  0.00     0.227 C 
HETATM   20  C   UNK N   1      36.861  44.788  63.885  0.00  0.00     0.074 A 
HETATM   21  C   UNK N   1      37.307  44.811  62.560  0.00  0.00     0.071 A 
BRANCH  19  22
HETATM   22  O   UNK N   1      31.160  42.887  62.459  0.00  0.00    -0.385 OA
HETATM   23  H   UNK N   1      31.206  42.047  61.929  0.00  0.00     0.210 HD
ENDBRANCH  19  22
BRANCH  17  24
HETATM   24  O   UNK N   1      35.110  44.438  65.468  0.00  0.00    -0.360 OA
HETATM   25  H   UNK N   1      34.193  44.640  65.707  0.00  0.00     0.217 HD
ENDBRANCH  17  24
BRANCH  21  26
HETATM   26  O   UNK N   1      38.587  45.140  62.291  0.00  0.00    -0.361 OA
HETATM   27  H   UNK N   1      38.988  44.958  61.429  0.00  0.00     0.217 HD
ENDBRANCH  21  26
ENDBRANCH   1  11
BRANCH   5  28
HETATM   28  C   UNK N   1      27.849  39.696  57.278  0.00  0.00     0.199 C 
BRANCH  28  29
HETATM   29  O   UNK N   1      26.476  39.979  57.285  0.00  0.00    -0.398 OA
HETATM   30  H   UNK N   1      26.283  40.487  56.454  0.00  0.00     0.209 HD
ENDBRANCH  28  29
ENDBRANCH   5  28
BRANCH   6  31
HETATM   31  C   UNK N   1      28.580  41.460  54.830  0.00  0.00    -0.024 A 
HETATM   32  C   UNK N   1      27.735  42.574  54.748  0.00  0.00     0.049 A 
HETATM   33  C   UNK N   1      26.909  42.767  53.624  0.00  0.00     0.101 A 
HETATM   34  C   UNK N   1      26.941  41.822  52.577  0.00  0.00     0.099 A 
HETATM   35  C   UNK N   1      27.785  40.709  52.668  0.00  0.00     0.040 A 
HETATM   36  C   UNK N   1      28.601  40.528  53.784  0.00  0.00     0.013 A 
BRANCH  33  37
HETATM   37  O   UNK N   1      26.084  43.845  53.523  0.00  0.00    -0.353 OA
HETATM   38  C   UNK N   1      24.822  43.924  54.080  0.00  0.00     0.210 C 
ENDBRANCH  33  37
BRANCH  34  39
HETATM   39  O   UNK N   1      26.170  41.971  51.480  0.00  0.00    -0.358 OA
HETATM   40  H   UNK N   1      25.372  42.519  51.479  0.00  0.00     0.218 HD
ENDBRANCH  34  39
ENDBRANCH   6  31
TORSDOF 9
ENDMDL
MODEL 5
REMARK VINA RESULT:      -5.7     15.505     20.958
REMARK  9 active torsions:
REMARK  status: ('A' for Active; 'I' for Inactive)
REMARK    1  A    between atoms: C_6  and  C_10 
REMARK    2  A    between atoms: C_7  and  O_8 
REMARK    3  A    between atoms: C_14  and  C_30 
REMARK    4  A    between atoms: C_15  and  C_20 
REMARK    5  A    between atoms: C_22  and  O_23 
REMARK    6  A    between atoms: C_25  and  O_26 
REMARK    7  A    between atoms: C_30  and  O_31 
REMARK    8  A    between atoms: C_34  and  O_35 
REMARK    9  A    between atoms: C_38  and  O_39 
ROOT
HETATM    1  C   UNK N   1      31.765  42.304  59.904  0.00  0.00    -0.023 A 
HETATM    2  C   UNK N   1      31.699  42.848  61.196  0.00  0.00     0.049 A 
HETATM    3  C   UNK N   1      32.848  43.348  61.795  0.00  0.00     0.103 A 
HETATM    4  O   UNK N   1      32.808  43.850  63.054  0.00  0.00    -0.338 OA
HETATM    5  C   UNK N   1      33.983  44.059  63.764  0.00  0.00     0.186 C 
HETATM    6  C   UNK N   1      35.021  44.702  62.807  0.00  0.00     0.193 C 
HETATM    7  O   UNK N   1      35.160  43.884  61.692  0.00  0.00    -0.336 OA
HETATM    8  C   UNK N   1      34.070  43.342  61.101  0.00  0.00     0.103 A 
HETATM    9  C   UNK N   1      34.148  42.788  59.823  0.00  0.00     0.040 A 
HETATM   10  C   UNK N   1      32.998  42.269  59.223  0.00  0.00     0.013 A 
ENDROOT
BRANCH   1  11
HETATM   11  C   UNK N   1      30.517  41.769  59.259  0.00  0.00     0.198 C 
HETATM   12  O   UNK N   1      30.413  42.271  57.972  0.00  0.00    -0.337 OA
HETATM   13  C   UNK N   1      29.435  41.858  57.125  0.00  0.00     0.089 A 
HETATM   14  C   UNK N   1      28.774  40.632  57.350  0.00  0.00     0.079 A 
HETATM   15  C   UNK N   1      29.077  42.664  56.044  0.00  0.00     0.074 A 
HETATM   16  C   UNK N   1      29.232  39.801  58.497  0.00  0.00     0.196 C 
HETATM   17  C   UNK N   1      27.720  40.244  56.499  0.00  0.00     0.085 A 
HETATM   18  O   UNK N   1      28.625  38.800  58.844  0.00  0.00    -0.289 OA
HETATM   19  C   UNK N   1      30.484  40.229  59.226  0.00  0.00     0.227 C 
HETATM   20  C   UNK N   1      27.358  41.074  55.424  0.00  0.00     0.074 A 
HETATM   21  C   UNK N   1      28.035  42.275  55.193  0.00  0.00     0.071 A 
BRANCH  19  22
HETATM   22  O   UNK N   1      30.562  39.667  60.513  0.00  0.00    -0.385 OA
HETATM   23  H   UNK N   1      31.523  39.625  60.763  0.00  0.00     0.210 HD
ENDBRANCH  19  22
BRANCH  17  24
HETATM   24  O   UNK N   1      27.064  39.083  56.708  0.00  0.00    -0.360 OA
HETATM   25  H   UNK N   1      26.140  39.064  56.998  0.00  0.00     0.217 HD
ENDBRANCH  17  24
BRANCH  21  26
HETATM   26  O   UNK N   1      27.674  43.057  54.155  0.00  0.00    -0.361 OA
HETATM   27  H   UNK N   1      28.323  43.388  53.519  0.00  0.00     0.217 HD
ENDBRANCH  21  26
ENDBRANCH   1  11
BRANCH   5  28
HETATM   28  C   UNK N   1      33.693  44.902  65.014  0.00  0.00     0.199 C 
BRANCH  28  29
HETATM   29  O   UNK N   1      33.255  46.189  64.674  0.00  0.00    -0.398 OA
HETATM   30  H   UNK N   1      33.955  46.822  64.981  0.00  0.00     0.209 HD
ENDBRANCH  28  29
ENDBRANCH   5  28
BRANCH   6  31
HETATM   31  C   UNK N   1      36.368  44.918  63.438  0.00  0.00    -0.024 A 
HETATM   32  C   UNK N   1      37.062  46.112  63.210  0.00  0.00     0.049 A 
HETATM   33  C   UNK N   1      38.318  46.337  63.807  0.00  0.00     0.101 A 
HETATM   34  C   UNK N   1      38.872  45.341  64.637  0.00  0.00     0.099 A 
HETATM   35  C   UNK N   1      38.174  44.147  64.857  0.00  0.00     0.040 A 
HETATM   36  C   UNK N   1      36.930  43.935  64.264  0.00  0.00     0.013 A 
BRANCH  33  37
HETATM   37  O   UNK N   1      39.007  47.492  63.601  0.00  0.00    -0.353 OA
HETATM   38  C   UNK N   1      38.961  48.241  62.441  0.00  0.00     0.210 C 
ENDBRANCH  33  37
BRANCH  34  39
HETATM   39  O   UNK N   1      40.070  45.517  65.232  0.00  0.00    -0.358 OA
HETATM   40  H   UNK N   1      40.271  45.159  66.108  0.00  0.00     0.218 HD
ENDBRANCH  34  39
ENDBRANCH   6  31
TORSDOF 9
ENDMDL
MODEL 6
REMARK VINA RESULT:      -5.6     17.208     21.949
REMARK  9 active torsions:
REMARK  status: ('A' for Active; 'I' for Inactive)
REMARK    1  A    between atoms: C_6  and  C_10 
REMARK    2  A    between atoms: C_7  and  O_8 
REMARK    3  A    between atoms: C_14  and  C_30 
REMARK    4  A    between atoms: C_15  and  C_20 
REMARK    5  A    between atoms: C_22  and  O_23 
REMARK    6  A    between atoms: C_25  and  O_26 
REMARK    7  A    between atoms: C_30  and  O_31 
REMARK    8  A    between atoms: C_34  and  O_35 
REMARK    9  A    between atoms: C_38  and  O_39 
ROOT
HETATM    1  C   UNK N   1      30.064  42.239  57.520  0.00  0.00    -0.023 A 
HETATM    2  C   UNK N   1      29.698  42.161  58.873  0.00  0.00     0.049 A 
HETATM    3  C   UNK N   1      30.496  42.759  59.841  0.00  0.00     0.103 A 
HETATM    4  O   UNK N   1      30.174  42.667  61.155  0.00  0.00    -0.338 OA
HETATM    5  C   UNK N   1      31.109  42.985  62.130  0.00  0.00     0.186 C 
HETATM    6  C   UNK N   1      31.842  44.283  61.697  0.00  0.00     0.193 C 
HETATM    7  O   UNK N   1      32.377  44.086  60.430  0.00  0.00    -0.336 OA
HETATM    8  C   UNK N   1      31.649  43.470  59.469  0.00  0.00     0.103 A 
HETATM    9  C   UNK N   1      32.029  43.539  58.128  0.00  0.00     0.040 A 
HETATM   10  C   UNK N   1      31.238  42.925  57.152  0.00  0.00     0.013 A 
ENDROOT
BRANCH   1  11
HETATM   11  C   UNK N   1      29.193  41.595  56.478  0.00  0.00     0.198 C 
HETATM   12  O   UNK N   1      29.368  42.245  55.267  0.00  0.00    -0.337 OA
HETATM   13  C   UNK N   1      28.784  41.792  54.127  0.00  0.00     0.089 A 
HETATM   14  C   UNK N   1      28.351  40.452  54.036  0.00  0.00     0.079 A 
HETATM   15  C   UNK N   1      28.599  42.667  53.057  0.00  0.00     0.074 A 
HETATM   16  C   UNK N   1      28.615  39.561  55.200  0.00  0.00     0.196 C 
HETATM   17  C   UNK N   1      27.692  40.012  52.871  0.00  0.00     0.085 A 
HETATM   18  O   UNK N   1      28.151  38.433  55.259  0.00  0.00    -0.289 OA
HETATM   19  C   UNK N   1      29.486  40.091  56.314  0.00  0.00     0.227 C 
HETATM   20  C   UNK N   1      27.496  40.908  51.807  0.00  0.00     0.074 A 
HETATM   21  C   UNK N   1      27.952  42.228  51.895  0.00  0.00     0.071 A 
BRANCH  19  22
HETATM   22  O   UNK N   1      29.299  39.379  57.513  0.00  0.00    -0.385 OA
HETATM   23  H   UNK N   1      28.326  39.387  57.716  0.00  0.00     0.210 HD
ENDBRANCH  19  22
BRANCH  17  24
HETATM   24  O   UNK N   1      27.254  38.739  52.773  0.00  0.00    -0.360 OA
HETATM   25  H   UNK N   1      26.961  38.364  51.930  0.00  0.00     0.217 HD
ENDBRANCH  17  24
BRANCH  21  26
HETATM   26  O   UNK N   1      27.757  43.072  50.861  0.00  0.00    -0.361 OA
HETATM   27  H   UNK N   1      27.439  42.759  50.003  0.00  0.00     0.217 HD
ENDBRANCH  21  26
ENDBRANCH   1  11
BRANCH   5  28
HETATM   28  C   UNK N   1      30.419  43.095  63.497  0.00  0.00     0.199 C 
BRANCH  28  29
HETATM   29  O   UNK N   1      31.158  42.447  64.498  0.00  0.00    -0.398 OA
HETATM   30  H   UNK N   1      31.608  41.674  64.069  0.00  0.00     0.209 HD
ENDBRANCH  28  29
ENDBRANCH   5  28
BRANCH   6  31
HETATM   31  C   UNK N   1      32.935  44.700  62.640  0.00  0.00    -0.024 A 
HETATM   32  C   UNK N   1      32.781  45.850  63.423  0.00  0.00     0.049 A 
HETATM   33  C   UNK N   1      33.789  46.246  64.323  0.00  0.00     0.101 A 
HETATM   34  C   UNK N   1      34.961  45.468  64.426  0.00  0.00     0.099 A 
HETATM   35  C   UNK N   1      35.111  44.322  63.637  0.00  0.00     0.040 A 
HETATM   36  C   UNK N   1      34.105  43.937  62.750  0.00  0.00     0.013 A 
BRANCH  33  37
HETATM   37  O   UNK N   1      33.657  47.358  65.096  0.00  0.00    -0.353 OA
HETATM   38  C   UNK N   1      33.794  48.654  64.638  0.00  0.00     0.210 C 
ENDBRANCH  33  37
BRANCH  34  39
HETATM   39  O   UNK N   1      35.951  45.809  65.278  0.00  0.00    -0.358 OA
HETATM   40  H   UNK N   1      35.803  46.393  66.036  0.00  0.00     0.218 HD
ENDBRANCH  34  39
ENDBRANCH   6  31
TORSDOF 9
ENDMDL
MODEL 7
REMARK VINA RESULT:      -5.5     17.757     22.318
REMARK  9 active torsions:
REMARK  status: ('A' for Active; 'I' for Inactive)
REMARK    1  A    between atoms: C_6  and  C_10 
REMARK    2  A    between atoms: C_7  and  O_8 
REMARK    3  A    between atoms: C_14  and  C_30 
REMARK    4  A    between atoms: C_15  and  C_20 
REMARK    5  A    between atoms: C_22  and  O_23 
REMARK    6  A    between atoms: C_25  and  O_26 
REMARK    7  A    between atoms: C_30  and  O_31 
REMARK    8  A    between atoms: C_34  and  O_35 
REMARK    9  A    between atoms: C_38  and  O_39 
ROOT
HETATM    1  C   UNK N   1      30.335  42.110  56.933  0.00  0.00    -0.023 A 
HETATM    2  C   UNK N   1      29.989  41.821  58.263  0.00  0.00     0.049 A 
HETATM    3  C   UNK N   1      30.550  42.557  59.299  0.00  0.00     0.103 A 
HETATM    4  O   UNK N   1      30.251  42.272  60.590  0.00  0.00    -0.338 OA
HETATM    5  C   UNK N   1      31.028  42.783  61.621  0.00  0.00     0.186 C 
HETATM    6  C   UNK N   1      31.335  44.271  61.305  0.00  0.00     0.193 C 
HETATM    7  O   UNK N   1      31.925  44.344  60.049  0.00  0.00    -0.336 OA
HETATM    8  C   UNK N   1      31.437  43.612  59.021  0.00  0.00     0.103 A 
HETATM    9  C   UNK N   1      31.798  43.896  57.704  0.00  0.00     0.040 A 
HETATM   10  C   UNK N   1      31.249  43.147  56.659  0.00  0.00     0.013 A 
ENDROOT
BRANCH   1  11
HETATM   11  C   UNK N   1      29.721  41.314  55.817  0.00  0.00     0.198 C 
HETATM   12  O   UNK N   1      29.727  39.970  56.154  0.00  0.00    -0.337 OA
HETATM   13  C   UNK N   1      29.126  39.038  55.369  0.00  0.00     0.089 A 
HETATM   14  C   UNK N   1      28.132  39.424  54.445  0.00  0.00     0.079 A 
HETATM   15  C   UNK N   1      29.513  37.702  55.471  0.00  0.00     0.074 A 
HETATM   16  C   UNK N   1      27.737  40.860  54.415  0.00  0.00     0.196 C 
HETATM   17  C   UNK N   1      27.560  38.457  53.595  0.00  0.00     0.085 A 
HETATM   18  O   UNK N   1      26.991  41.299  53.554  0.00  0.00    -0.289 OA
HETATM   19  C   UNK N   1      28.284  41.767  55.492  0.00  0.00     0.227 C 
HETATM   20  C   UNK N   1      27.971  37.117  53.696  0.00  0.00     0.074 A 
HETATM   21  C   UNK N   1      28.938  36.738  54.633  0.00  0.00     0.071 A 
BRANCH  19  22
HETATM   22  O   UNK N   1      28.225  43.122  55.119  0.00  0.00    -0.385 OA
HETATM   23  H   UNK N   1      29.114  43.369  54.750  0.00  0.00     0.210 HD
ENDBRANCH  19  22
BRANCH  17  24
HETATM   24  O   UNK N   1      26.621  38.809  52.692  0.00  0.00    -0.360 OA
HETATM   25  H   UNK N   1      26.750  39.552  52.085  0.00  0.00     0.217 HD
ENDBRANCH  17  24
BRANCH  21  26
HETATM   26  O   UNK N   1      29.318  35.447  54.716  0.00  0.00    -0.361 OA
HETATM   27  H   UNK N   1      29.269  34.853  53.954  0.00  0.00     0.217 HD
ENDBRANCH  21  26
ENDBRANCH   1  11
BRANCH   5  28
HETATM   28  C   UNK N   1      30.316  42.573  62.964  0.00  0.00     0.199 C 
BRANCH  28  29
HETATM   29  O   UNK N   1      29.974  41.228  63.158  0.00  0.00    -0.398 OA
HETATM   30  H   UNK N   1      30.771  40.689  62.912  0.00  0.00     0.209 HD
ENDBRANCH  28  29
ENDBRANCH   5  28
BRANCH   6  31
HETATM   31  C   UNK N   1      32.233  44.928  62.316  0.00  0.00    -0.024 A 
HETATM   32  C   UNK N   1      33.493  44.383  62.590  0.00  0.00     0.049 A 
HETATM   33  C   UNK N   1      34.352  44.995  63.523  0.00  0.00     0.101 A 
HETATM   34  C   UNK N   1      33.927  46.167  64.182  0.00  0.00     0.099 A 
HETATM   35  C   UNK N   1      32.664  46.704  63.907  0.00  0.00     0.040 A 
HETATM   36  C   UNK N   1      31.821  46.092  62.979  0.00  0.00     0.013 A 
BRANCH  33  37
HETATM   37  O   UNK N   1      35.582  44.483  63.800  0.00  0.00    -0.353 OA
HETATM   38  C   UNK N   1      36.744  44.822  63.135  0.00  0.00     0.210 C 
ENDBRANCH  33  37
BRANCH  34  39
HETATM   39  O   UNK N   1      34.720  46.788  65.080  0.00  0.00    -0.358 OA
HETATM   40  H   UNK N   1      35.620  47.072  64.867  0.00  0.00     0.218 HD
ENDBRANCH  34  39
ENDBRANCH   6  31
TORSDOF 9
ENDMDL
MODEL 8
REMARK VINA RESULT:      -5.3      1.398      2.376
REMARK  9 active torsions:
REMARK  status: ('A' for Active; 'I' for Inactive)
REMARK    1  A    between atoms: C_6  and  C_10 
REMARK    2  A    between atoms: C_7  and  O_8 
REMARK    3  A    between atoms: C_14  and  C_30 
REMARK    4  A    between atoms: C_15  and  C_20 
REMARK    5  A    between atoms: C_22  and  O_23 
REMARK    6  A    between atoms: C_25  and  O_26 
REMARK    7  A    between atoms: C_30  and  O_31 
REMARK    8  A    between atoms: C_34  and  O_35 
REMARK    9  A    between atoms: C_38  and  O_39 
ROOT
HETATM    1  C   UNK N   1      47.334  57.279  57.650  0.00  0.00    -0.023 A 
HETATM    2  C   UNK N   1      47.153  56.387  58.719  0.00  0.00     0.049 A 
HETATM    3  C   UNK N   1      46.130  56.604  59.634  0.00  0.00     0.103 A 
HETATM    4  O   UNK N   1      45.959  55.770  60.690  0.00  0.00    -0.338 OA
HETATM    5  C   UNK N   1      45.156  56.146  61.758  0.00  0.00     0.186 C 
HETATM    6  C   UNK N   1      43.868  56.800  61.191  0.00  0.00     0.193 C 
HETATM    7  O   UNK N   1      44.236  57.846  60.352  0.00  0.00    -0.336 OA
HETATM    8  C   UNK N   1      45.255  57.692  59.475  0.00  0.00     0.103 A 
HETATM    9  C   UNK N   1      45.438  58.592  58.425  0.00  0.00     0.040 A 
HETATM   10  C   UNK N   1      46.476  58.387  57.511  0.00  0.00     0.013 A 
ENDROOT
BRANCH   1  11
HETATM   11  C   UNK N   1      48.440  57.036  56.662  0.00  0.00     0.198 C 
HETATM   12  O   UNK N   1      48.775  55.691  56.667  0.00  0.00    -0.337 OA
HETATM   13  C   UNK N   1      49.669  55.178  55.783  0.00  0.00     0.089 A 
HETATM   14  C   UNK N   1      49.957  55.867  54.586  0.00  0.00     0.079 A 
HETATM   15  C   UNK N   1      50.314  53.977  56.078  0.00  0.00     0.074 A 
HETATM   16  C   UNK N   1      49.205  57.123  54.314  0.00  0.00     0.196 C 
HETATM   17  C   UNK N   1      50.932  55.354  53.707  0.00  0.00     0.085 A 
HETATM   18  O   UNK N   1      49.492  57.849  53.375  0.00  0.00    -0.289 OA
HETATM   19  C   UNK N   1      48.061  57.476  55.235  0.00  0.00     0.227 C 
HETATM   20  C   UNK N   1      51.587  54.152  54.024  0.00  0.00     0.074 A 
HETATM   21  C   UNK N   1      51.276  53.462  55.201  0.00  0.00     0.071 A 
BRANCH  19  22
HETATM   22  O   UNK N   1      47.735  58.843  55.168  0.00  0.00    -0.385 OA
HETATM   23  H   UNK N   1      48.578  59.356  55.280  0.00  0.00     0.210 HD
ENDBRANCH  19  22
BRANCH  17  24
HETATM   24  O   UNK N   1      51.235  56.008  52.565  0.00  0.00    -0.360 OA
HETATM   25  H   UNK N   1      51.147  56.969  52.489  0.00  0.00     0.217 HD
ENDBRANCH  17  24
BRANCH  21  26
HETATM   26  O   UNK N   1      51.914  52.309  55.487  0.00  0.00    -0.361 OA
HETATM   27  H   UNK N   1      51.925  51.944  56.382  0.00  0.00     0.217 HD
ENDBRANCH  21  26
ENDBRANCH   1  11
BRANCH   5  28
HETATM   28  C   UNK N   1      44.884  54.932  62.658  0.00  0.00     0.199 C 
BRANCH  28  29
HETATM   29  O   UNK N   1      44.947  53.733  61.934  0.00  0.00    -0.398 OA
HETATM   30  H   UNK N   1      45.217  53.969  61.008  0.00  0.00     0.209 HD
ENDBRANCH  28  29
ENDBRANCH   5  28
BRANCH   6  31
HETATM   31  C   UNK N   1      42.938  57.317  62.252  0.00  0.00    -0.024 A 
HETATM   32  C   UNK N   1      41.651  56.780  62.375  0.00  0.00     0.049 A 
HETATM   33  C   UNK N   1      40.773  57.242  63.375  0.00  0.00     0.101 A 
HETATM   34  C   UNK N   1      41.206  58.257  64.253  0.00  0.00     0.099 A 
HETATM   35  C   UNK N   1      42.493  58.792  64.122  0.00  0.00     0.040 A 
HETATM   36  C   UNK N   1      43.355  58.326  63.131  0.00  0.00     0.013 A 
BRANCH  33  37
HETATM   37  O   UNK N   1      39.519  56.731  63.513  0.00  0.00    -0.353 OA
HETATM   38  C   UNK N   1      39.187  55.402  63.336  0.00  0.00     0.210 C 
ENDBRANCH  33  37
BRANCH  34  39
HETATM   39  O   UNK N   1      40.398  58.726  65.228  0.00  0.00    -0.358 OA
HETATM   40  H   UNK N   1      39.916  59.560  65.144  0.00  0.00     0.218 HD
ENDBRANCH  34  39
ENDBRANCH   6  31
TORSDOF 9
ENDMDL
MODEL 9
REMARK VINA RESULT:      -5.3     18.525     22.211
REMARK  9 active torsions:
REMARK  status: ('A' for Active; 'I' for Inactive)
REMARK    1  A    between atoms: C_6  and  C_10 
REMARK    2  A    between atoms: C_7  and  O_8 
REMARK    3  A    between atoms: C_14  and  C_30 
REMARK    4  A    between atoms: C_15  and  C_20 
REMARK    5  A    between atoms: C_22  and  O_23 
REMARK    6  A    between atoms: C_25  and  O_26 
REMARK    7  A    between atoms: C_30  and  O_31 
REMARK    8  A    between atoms: C_34  and  O_35 
REMARK    9  A    between atoms: C_38  and  O_39 
ROOT
HETATM    1  C   UNK N   1      30.077  42.652  57.544  0.00  0.00    -0.023 A 
HETATM    2  C   UNK N   1      28.825  43.283  57.602  0.00  0.00     0.049 A 
HETATM    3  C   UNK N   1      28.752  44.664  57.743  0.00  0.00     0.103 A 
HETATM    4  O   UNK N   1      27.551  45.287  57.831  0.00  0.00    -0.338 OA
HETATM    5  C   UNK N   1      27.473  46.600  58.276  0.00  0.00     0.186 C 
HETATM    6  C   UNK N   1      28.614  47.410  57.605  0.00  0.00     0.193 C 
HETATM    7  O   UNK N   1      29.822  46.781  57.878  0.00  0.00    -0.336 OA
HETATM    8  C   UNK N   1      29.927  45.434  57.794  0.00  0.00     0.103 A 
HETATM    9  C   UNK N   1      31.175  44.813  57.754  0.00  0.00     0.040 A 
HETATM   10  C   UNK N   1      31.253  43.423  57.629  0.00  0.00     0.013 A 
ENDROOT
BRANCH   1  11
HETATM   11  C   UNK N   1      30.148  41.159  57.387  0.00  0.00     0.198 C 
HETATM   12  O   UNK N   1      29.547  40.552  58.477  0.00  0.00    -0.337 OA
HETATM   13  C   UNK N   1      29.371  39.207  58.534  0.00  0.00     0.089 A 
HETATM   14  C   UNK N   1      29.391  38.438  57.351  0.00  0.00     0.079 A 
HETATM   15  C   UNK N   1      29.192  38.590  59.772  0.00  0.00     0.074 A 
HETATM   16  C   UNK N   1      29.547  39.163  56.059  0.00  0.00     0.196 C 
HETATM   17  C   UNK N   1      29.269  37.036  57.430  0.00  0.00     0.085 A 
HETATM   18  O   UNK N   1      29.714  38.566  55.008  0.00  0.00    -0.289 OA
HETATM   19  C   UNK N   1      29.486  40.673  56.083  0.00  0.00     0.227 C 
HETATM   20  C   UNK N   1      29.107  36.426  58.685  0.00  0.00     0.074 A 
HETATM   21  C   UNK N   1      29.062  37.197  59.851  0.00  0.00     0.071 A 
BRANCH  19  22
HETATM   22  O   UNK N   1      30.077  41.241  54.941  0.00  0.00    -0.385 OA
HETATM   23  H   UNK N   1      29.383  41.272  54.230  0.00  0.00     0.210 HD
ENDBRANCH  19  22
BRANCH  17  24
HETATM   24  O   UNK N   1      29.304  36.283  56.311  0.00  0.00    -0.360 OA
HETATM   25  H   UNK N   1      29.999  36.388  55.646  0.00  0.00     0.217 HD
ENDBRANCH  17  24
BRANCH  21  26
HETATM   26  O   UNK N   1      28.902  36.593  61.046  0.00  0.00    -0.361 OA
HETATM   27  H   UNK N   1      28.347  36.978  61.739  0.00  0.00     0.217 HD
ENDBRANCH  21  26
ENDBRANCH   1  11
BRANCH   5  28
HETATM   28  C   UNK N   1      26.072  47.162  57.997  0.00  0.00     0.199 C 
BRANCH  28  29
HETATM   29  O   UNK N   1      25.494  46.560  56.871  0.00  0.00    -0.398 OA
HETATM   30  H   UNK N   1      24.939  47.253  56.427  0.00  0.00     0.209 HD
ENDBRANCH  28  29
ENDBRANCH   5  28
BRANCH   6  31
HETATM   31  C   UNK N   1      28.683  48.841  58.058  0.00  0.00    -0.024 A 
HETATM   32  C   UNK N   1      28.673  49.142  59.425  0.00  0.00     0.049 A 
HETATM   33  C   UNK N   1      28.753  50.477  59.867  0.00  0.00     0.101 A 
HETATM   34  C   UNK N   1      28.841  51.512  58.912  0.00  0.00     0.099 A 
HETATM   35  C   UNK N   1      28.846  51.204  57.547  0.00  0.00     0.040 A 
HETATM   36  C   UNK N   1      28.769  49.878  57.120  0.00  0.00     0.013 A 
BRANCH  33  37
HETATM   37  O   UNK N   1      28.748  50.791  61.191  0.00  0.00    -0.353 OA
HETATM   38  C   UNK N   1      28.672  49.870  62.217  0.00  0.00     0.210 C 
ENDBRANCH  33  37
BRANCH  34  39
HETATM   39  O   UNK N   1      28.924  52.804  59.291  0.00  0.00    -0.358 OA
HETATM   40  H   UNK N   1      29.769  53.267  59.371  0.00  0.00     0.218 HD
ENDBRANCH  34  39
ENDBRANCH   6  31
TORSDOF 9
ENDMDL
