MODEL 1
REMARK VINA RESULT:      -6.1      0.000      0.000
REMARK  9 active torsions:
REMARK  status: ('A' for Active; 'I' for Inactive)
REMARK    1  A    between atoms: C_6  and  C_10 
REMARK    2  A    between atoms: C_7  and  O_8 
REMARK    3  A    between atoms: C_14  and  C_30 
REMARK    4  A    between atoms: C_15  and  C_20 
REMARK    5  A    between atoms: C_22  and  O_23 
REMARK    6  A    between atoms: C_25  and  O_26 
REMARK    7  A    between atoms: C_30  and  O_31 
REMARK    8  A    between atoms: C_34  and  O_35 
REMARK    9  A    between atoms: C_38  and  O_39 
ROOT
HETATM    1  C   UNK N   1      30.577  44.746  59.284  0.00  0.00    -0.023 A 
HETATM    2  C   UNK N   1      30.804  45.780  58.357  0.00  0.00     0.049 A 
HETATM    3  C   UNK N   1      29.914  46.848  58.258  0.00  0.00     0.103 A 
HETATM    4  O   UNK N   1      30.127  47.851  57.370  0.00  0.00    -0.338 OA
HETATM    5  C   UNK N   1      29.443  49.054  57.490  0.00  0.00     0.186 C 
HETATM    6  C   UNK N   1      27.956  48.742  57.823  0.00  0.00     0.193 C 
HETATM    7  O   UNK N   1      27.914  47.933  58.948  0.00  0.00    -0.336 OA
HETATM    8  C   UNK N   1      28.777  46.895  59.081  0.00  0.00     0.103 A 
HETATM    9  C   UNK N   1      28.544  45.888  60.014  0.00  0.00     0.040 A 
HETATM   10  C   UNK N   1      29.433  44.813  60.116  0.00  0.00     0.013 A 
ENDROOT
BRANCH   1  11
HETATM   11  C   UNK N   1      31.583  43.598  59.331  0.00  0.00     0.198 C 
HETATM   12  O   UNK N   1      30.887  42.403  59.392  0.00  0.00    -0.337 OA
HETATM   13  C   UNK N   1      30.280  41.867  58.298  0.00  0.00     0.089 A 
HETATM   14  C   UNK N   1      30.730  42.193  56.992  0.00  0.00     0.079 A 
HETATM   15  C   UNK N   1      29.214  40.983  58.480  0.00  0.00     0.074 A 
HETATM   16  C   UNK N   1      31.934  43.083  56.896  0.00  0.00     0.196 C 
HETATM   17  C   UNK N   1      30.055  41.621  55.870  0.00  0.00     0.085 A 
HETATM   18  O   UNK N   1      32.477  43.321  55.832  0.00  0.00    -0.289 OA
HETATM   19  C   UNK N   1      32.600  43.549  58.168  0.00  0.00     0.227 C 
HETATM   20  C   UNK N   1      28.983  40.746  56.086  0.00  0.00     0.074 A 
HETATM   21  C   UNK N   1      28.565  40.422  57.376  0.00  0.00     0.071 A 
BRANCH  19  22
HETATM   22  O   UNK N   1      33.676  42.696  58.470  0.00  0.00    -0.385 OA
HETATM   23  H   UNK N   1      34.104  42.427  57.615  0.00  0.00     0.210 HD
ENDBRANCH  19  22
BRANCH  17  24
HETATM   24  O   UNK N   1      30.395  41.872  54.585  0.00  0.00    -0.360 OA
HETATM   25  H   UNK N   1      31.065  41.403  54.079  0.00  0.00     0.217 HD
ENDBRANCH  17  24
BRANCH  21  26
HETATM   26  O   UNK N   1      27.533  39.570  57.545  0.00  0.00    -0.361 OA
HETATM   27  H   UNK N   1      26.722  39.639  57.021  0.00  0.00     0.217 HD
ENDBRANCH  21  26
ENDBRANCH   1  11
BRANCH   5  28
HETATM   28  C   UNK N   1      29.624  49.896  56.224  0.00  0.00     0.199 C 
BRANCH  28  29
HETATM   29  O   UNK N   1      30.804  49.506  55.576  0.00  0.00    -0.398 OA
HETATM   30  H   UNK N   1      31.403  50.297  55.595  0.00  0.00     0.209 HD
ENDBRANCH  28  29
ENDBRANCH   5  28
BRANCH   6  31
HETATM   31  C   UNK N   1      27.063  49.946  58.037  0.00  0.00    -0.024 A 
HETATM   32  C   UNK N   1      25.941  50.119  57.213  0.00  0.00     0.049 A 
HETATM   33  C   UNK N   1      25.077  51.221  57.393  0.00  0.00     0.101 A 
HETATM   34  C   UNK N   1      25.363  52.158  58.405  0.00  0.00     0.099 A 
HETATM   35  C   UNK N   1      26.479  51.981  59.227  0.00  0.00     0.040 A 
HETATM   36  C   UNK N   1      27.317  50.881  59.057  0.00  0.00     0.013 A 
BRANCH  33  37
HETATM   37  O   UNK N   1      23.974  51.400  56.617  0.00  0.00    -0.353 OA
HETATM   38  C   UNK N   1      23.989  51.805  55.296  0.00  0.00     0.210 C 
ENDBRANCH  33  37
BRANCH  34  39
HETATM   39  O   UNK N   1      24.570  53.232  58.605  0.00  0.00    -0.358 OA
HETATM   40  H   UNK N   1      24.269  53.498  59.484  0.00  0.00     0.218 HD
ENDBRANCH  34  39
ENDBRANCH   6  31
TORSDOF 9
ENDMDL
MODEL 2
REMARK VINA RESULT:      -6.1      4.898      9.087
REMARK  9 active torsions:
REMARK  status: ('A' for Active; 'I' for Inactive)
REMARK    1  A    between atoms: C_6  and  C_10 
REMARK    2  A    between atoms: C_7  and  O_8 
REMARK    3  A    between atoms: C_14  and  C_30 
REMARK    4  A    between atoms: C_15  and  C_20 
REMARK    5  A    between atoms: C_22  and  O_23 
REMARK    6  A    between atoms: C_25  and  O_26 
REMARK    7  A    between atoms: C_30  and  O_31 
REMARK    8  A    between atoms: C_34  and  O_35 
REMARK    9  A    between atoms: C_38  and  O_39 
ROOT
HETATM    1  C   UNK N   1      33.079  45.193  62.996  0.00  0.00    -0.023 A 
HETATM    2  C   UNK N   1      31.931  45.569  62.273  0.00  0.00     0.049 A 
HETATM    3  C   UNK N   1      31.497  44.805  61.191  0.00  0.00     0.103 A 
HETATM    4  O   UNK N   1      30.390  45.159  60.491  0.00  0.00    -0.338 OA
HETATM    5  C   UNK N   1      29.774  44.248  59.642  0.00  0.00     0.186 C 
HETATM    6  C   UNK N   1      30.878  43.500  58.841  0.00  0.00     0.193 C 
HETATM    7  O   UNK N   1      31.777  42.944  59.738  0.00  0.00    -0.336 OA
HETATM    8  C   UNK N   1      32.207  43.656  60.809  0.00  0.00     0.103 A 
HETATM    9  C   UNK N   1      33.336  43.260  61.523  0.00  0.00     0.040 A 
HETATM   10  C   UNK N   1      33.778  44.024  62.608  0.00  0.00     0.013 A 
ENDROOT
BRANCH   1  11
HETATM   11  C   UNK N   1      33.509  46.080  64.161  0.00  0.00     0.198 C 
HETATM   12  O   UNK N   1      34.545  45.454  64.834  0.00  0.00    -0.337 OA
HETATM   13  C   UNK N   1      35.813  45.433  64.341  0.00  0.00     0.089 A 
HETATM   14  C   UNK N   1      36.251  46.434  63.433  0.00  0.00     0.079 A 
HETATM   15  C   UNK N   1      36.682  44.420  64.750  0.00  0.00     0.074 A 
HETATM   16  C   UNK N   1      35.277  47.530  63.117  0.00  0.00     0.196 C 
HETATM   17  C   UNK N   1      37.585  46.366  62.927  0.00  0.00     0.085 A 
HETATM   18  O   UNK N   1      35.592  48.501  62.452  0.00  0.00    -0.289 OA
HETATM   19  C   UNK N   1      33.925  47.521  63.790  0.00  0.00     0.227 C 
HETATM   20  C   UNK N   1      38.428  45.330  63.350  0.00  0.00     0.074 A 
HETATM   21  C   UNK N   1      37.989  44.366  64.256  0.00  0.00     0.071 A 
BRANCH  19  22
HETATM   22  O   UNK N   1      33.966  48.347  64.926  0.00  0.00    -0.385 OA
HETATM   23  H   UNK N   1      33.919  49.292  64.622  0.00  0.00     0.210 HD
ENDBRANCH  19  22
BRANCH  17  24
HETATM   24  O   UNK N   1      38.099  47.260  62.051  0.00  0.00    -0.360 OA
HETATM   25  H   UNK N   1      39.005  47.580  62.043  0.00  0.00     0.217 HD
ENDBRANCH  17  24
BRANCH  21  26
HETATM   26  O   UNK N   1      38.832  43.388  64.645  0.00  0.00    -0.361 OA
HETATM   27  H   UNK N   1      39.252  43.393  65.518  0.00  0.00     0.217 HD
ENDBRANCH  21  26
ENDBRANCH   1  11
BRANCH   5  28
HETATM   28  C   UNK N   1      28.749  44.959  58.755  0.00  0.00     0.199 C 
BRANCH  28  29
HETATM   29  O   UNK N   1      29.422  45.716  57.787  0.00  0.00    -0.398 OA
HETATM   30  H   UNK N   1      29.777  45.066  57.126  0.00  0.00     0.209 HD
ENDBRANCH  28  29
ENDBRANCH   5  28
BRANCH   6  31
HETATM   31  C   UNK N   1      30.389  42.427  57.891  0.00  0.00    -0.024 A 
HETATM   32  C   UNK N   1      30.620  42.576  56.516  0.00  0.00     0.049 A 
HETATM   33  C   UNK N   1      30.192  41.589  55.601  0.00  0.00     0.101 A 
HETATM   34  C   UNK N   1      29.515  40.453  56.086  0.00  0.00     0.099 A 
HETATM   35  C   UNK N   1      29.290  40.305  57.458  0.00  0.00     0.040 A 
HETATM   36  C   UNK N   1      29.732  41.274  58.356  0.00  0.00     0.013 A 
BRANCH  33  37
HETATM   37  O   UNK N   1      30.420  41.704  54.265  0.00  0.00    -0.353 OA
HETATM   38  C   UNK N   1      29.488  42.119  53.333  0.00  0.00     0.210 C 
ENDBRANCH  33  37
BRANCH  34  39
HETATM   39  O   UNK N   1      29.079  39.490  55.247  0.00  0.00    -0.358 OA
HETATM   40  H   UNK N   1      28.222  39.540  54.800  0.00  0.00     0.218 HD
ENDBRANCH  34  39
ENDBRANCH   6  31
TORSDOF 9
ENDMDL
MODEL 3
REMARK VINA RESULT:      -5.9      2.197      8.932
REMARK  9 active torsions:
REMARK  status: ('A' for Active; 'I' for Inactive)
REMARK    1  A    between atoms: C_6  and  C_10 
REMARK    2  A    between atoms: C_7  and  O_8 
REMARK    3  A    between atoms: C_14  and  C_30 
REMARK    4  A    between atoms: C_15  and  C_20 
REMARK    5  A    between atoms: C_22  and  O_23 
REMARK    6  A    between atoms: C_25  and  O_26 
REMARK    7  A    between atoms: C_30  and  O_31 
REMARK    8  A    between atoms: C_34  and  O_35 
REMARK    9  A    between atoms: C_38  and  O_39 
ROOT
HETATM    1  C   UNK N   1      29.007  46.362  59.011  0.00  0.00    -0.023 A 
HETATM    2  C   UNK N   1      30.076  45.728  58.352  0.00  0.00     0.049 A 
HETATM    3  C   UNK N   1      29.867  44.548  57.639  0.00  0.00     0.103 A 
HETATM    4  O   UNK N   1      30.893  43.933  56.998  0.00  0.00    -0.338 OA
HETATM    5  C   UNK N   1      30.639  42.964  56.036  0.00  0.00     0.186 C 
HETATM    6  C   UNK N   1      29.507  42.036  56.560  0.00  0.00     0.193 C 
HETATM    7  O   UNK N   1      28.414  42.818  56.901  0.00  0.00    -0.336 OA
HETATM    8  C   UNK N   1      28.585  43.979  57.581  0.00  0.00     0.103 A 
HETATM    9  C   UNK N   1      27.512  44.600  58.214  0.00  0.00     0.040 A 
HETATM   10  C   UNK N   1      27.717  45.783  58.933  0.00  0.00     0.013 A 
ENDROOT
BRANCH   1  11
HETATM   11  C   UNK N   1      29.307  47.643  59.785  0.00  0.00     0.198 C 
HETATM   12  O   UNK N   1      30.018  48.500  58.962  0.00  0.00    -0.337 OA
HETATM   13  C   UNK N   1      29.416  49.205  57.966  0.00  0.00     0.089 A 
HETATM   14  C   UNK N   1      28.030  49.504  58.030  0.00  0.00     0.079 A 
HETATM   15  C   UNK N   1      30.185  49.640  56.884  0.00  0.00     0.074 A 
HETATM   16  C   UNK N   1      27.303  49.071  59.270  0.00  0.00     0.196 C 
HETATM   17  C   UNK N   1      27.433  50.233  56.956  0.00  0.00     0.085 A 
HETATM   18  O   UNK N   1      26.146  49.386  59.482  0.00  0.00    -0.289 OA
HETATM   19  C   UNK N   1      28.078  48.380  60.365  0.00  0.00     0.227 C 
HETATM   20  C   UNK N   1      28.230  50.646  55.880  0.00  0.00     0.074 A 
HETATM   21  C   UNK N   1      29.594  50.361  55.841  0.00  0.00     0.071 A 
BRANCH  19  22
HETATM   22  O   UNK N   1      28.463  49.326  61.331  0.00  0.00    -0.385 OA
HETATM   23  H   UNK N   1      28.164  50.221  61.021  0.00  0.00     0.210 HD
ENDBRANCH  19  22
BRANCH  17  24
HETATM   24  O   UNK N   1      26.122  50.562  56.913  0.00  0.00    -0.360 OA
HETATM   25  H   UNK N   1      25.560  50.733  57.673  0.00  0.00     0.217 HD
ENDBRANCH  17  24
BRANCH  21  26
HETATM   26  O   UNK N   1      30.331  50.781  54.793  0.00  0.00    -0.361 OA
HETATM   27  H   UNK N   1      31.252  51.060  54.895  0.00  0.00     0.217 HD
ENDBRANCH  21  26
ENDBRANCH   1  11
BRANCH   5  28
HETATM   28  C   UNK N   1      31.928  42.218  55.682  0.00  0.00     0.199 C 
BRANCH  28  29
HETATM   29  O   UNK N   1      31.909  41.883  54.322  0.00  0.00    -0.398 OA
HETATM   30  H   UNK N   1      31.338  41.076  54.244  0.00  0.00     0.209 HD
ENDBRANCH  28  29
ENDBRANCH   5  28
BRANCH   6  31
HETATM   31  C   UNK N   1      29.064  40.939  55.615  0.00  0.00    -0.024 A 
HETATM   32  C   UNK N   1      28.519  41.289  54.371  0.00  0.00     0.049 A 
HETATM   33  C   UNK N   1      28.108  40.294  53.457  0.00  0.00     0.101 A 
HETATM   34  C   UNK N   1      28.239  38.938  53.816  0.00  0.00     0.099 A 
HETATM   35  C   UNK N   1      28.786  38.593  55.054  0.00  0.00     0.040 A 
HETATM   36  C   UNK N   1      29.207  39.579  55.943  0.00  0.00     0.013 A 
BRANCH  33  37
HETATM   37  O   UNK N   1      27.592  40.610  52.238  0.00  0.00    -0.353 OA
HETATM   38  C   UNK N   1      28.140  41.519  51.355  0.00  0.00     0.210 C 
ENDBRANCH  33  37
BRANCH  34  39
HETATM   39  O   UNK N   1      27.849  37.955  52.978  0.00  0.00    -0.358 OA
HETATM   40  H   UNK N   1      26.918  37.747  52.818  0.00  0.00     0.218 HD
ENDBRANCH  34  39
ENDBRANCH   6  31
TORSDOF 9
ENDMDL
MODEL 4
REMARK VINA RESULT:      -5.7      1.691      2.933
REMARK  9 active torsions:
REMARK  status: ('A' for Active; 'I' for Inactive)
REMARK    1  A    between atoms: C_6  and  C_10 
REMARK    2  A    between atoms: C_7  and  O_8 
REMARK    3  A    between atoms: C_14  and  C_30 
REMARK    4  A    between atoms: C_15  and  C_20 
REMARK    5  A    between atoms: C_22  and  O_23 
REMARK    6  A    between atoms: C_25  and  O_26 
REMARK    7  A    between atoms: C_30  and  O_31 
REMARK    8  A    between atoms: C_34  and  O_35 
REMARK    9  A    between atoms: C_38  and  O_39 
ROOT
HETATM    1  C   UNK N   1      31.252  45.334  58.246  0.00  0.00    -0.023 A 
HETATM    2  C   UNK N   1      31.099  46.408  57.350  0.00  0.00     0.049 A 
HETATM    3  C   UNK N   1      30.278  47.487  57.674  0.00  0.00     0.103 A 
HETATM    4  O   UNK N   1      30.128  48.528  56.817  0.00  0.00    -0.338 OA
HETATM    5  C   UNK N   1      29.589  49.730  57.259  0.00  0.00     0.186 C 
HETATM    6  C   UNK N   1      28.369  49.415  58.171  0.00  0.00     0.193 C 
HETATM    7  O   UNK N   1      28.779  48.556  59.179  0.00  0.00    -0.336 OA
HETATM    8  C   UNK N   1      29.590  47.506  58.898  0.00  0.00     0.103 A 
HETATM    9  C   UNK N   1      29.742  46.458  59.803  0.00  0.00     0.040 A 
HETATM   10  C   UNK N   1      30.563  45.372  59.482  0.00  0.00     0.013 A 
ENDROOT
BRANCH   1  11
HETATM   11  C   UNK N   1      32.155  44.178  57.823  0.00  0.00     0.198 C 
HETATM   12  O   UNK N   1      32.321  43.329  58.905  0.00  0.00    -0.337 OA
HETATM   13  C   UNK N   1      31.345  42.465  59.298  0.00  0.00     0.089 A 
HETATM   14  C   UNK N   1      30.362  42.020  58.375  0.00  0.00     0.079 A 
HETATM   15  C   UNK N   1      31.331  42.014  60.619  0.00  0.00     0.074 A 
HETATM   16  C   UNK N   1      30.507  42.489  56.957  0.00  0.00     0.196 C 
HETATM   17  C   UNK N   1      29.346  41.126  58.831  0.00  0.00     0.085 A 
HETATM   18  O   UNK N   1      29.795  42.069  56.063  0.00  0.00    -0.289 OA
HETATM   19  C   UNK N   1      31.679  43.368  56.596  0.00  0.00     0.227 C 
HETATM   20  C   UNK N   1      29.354  40.700  60.166  0.00  0.00     0.074 A 
HETATM   21  C   UNK N   1      30.337  41.133  61.055  0.00  0.00     0.071 A 
BRANCH  19  22
HETATM   22  O   UNK N   1      32.716  42.572  56.080  0.00  0.00    -0.385 OA
HETATM   23  H   UNK N   1      33.418  42.489  56.778  0.00  0.00     0.210 HD
ENDBRANCH  19  22
BRANCH  17  24
HETATM   24  O   UNK N   1      28.358  40.649  58.039  0.00  0.00    -0.360 OA
HETATM   25  H   UNK N   1      27.549  41.114  57.810  0.00  0.00     0.217 HD
ENDBRANCH  17  24
BRANCH  21  26
HETATM   26  O   UNK N   1      30.317  40.696  62.331  0.00  0.00    -0.361 OA
HETATM   27  H   UNK N   1      31.109  40.710  62.888  0.00  0.00     0.217 HD
ENDBRANCH  21  26
ENDBRANCH   1  11
BRANCH   5  28
HETATM   28  C   UNK N   1      29.247  50.628  56.067  0.00  0.00     0.199 C 
BRANCH  28  29
HETATM   29  O   UNK N   1      29.831  50.098  54.909  0.00  0.00    -0.398 OA
HETATM   30  H   UNK N   1      29.217  49.388  54.589  0.00  0.00     0.209 HD
ENDBRANCH  28  29
ENDBRANCH   5  28
BRANCH   6  31
HETATM   31  C   UNK N   1      27.680  50.615  58.785  0.00  0.00    -0.024 A 
HETATM   32  C   UNK N   1      28.398  51.439  59.665  0.00  0.00     0.049 A 
HETATM   33  C   UNK N   1      27.793  52.575  60.245  0.00  0.00     0.101 A 
HETATM   34  C   UNK N   1      26.448  52.866  59.941  0.00  0.00     0.099 A 
HETATM   35  C   UNK N   1      25.737  52.046  59.061  0.00  0.00     0.040 A 
HETATM   36  C   UNK N   1      26.346  50.938  58.477  0.00  0.00     0.013 A 
BRANCH  33  37
HETATM   37  O   UNK N   1      28.474  53.397  61.088  0.00  0.00    -0.353 OA
HETATM   38  C   UNK N   1      29.075  54.586  60.725  0.00  0.00     0.210 C 
ENDBRANCH  33  37
BRANCH  34  39
HETATM   39  O   UNK N   1      25.827  53.936  60.482  0.00  0.00    -0.358 OA
HETATM   40  H   UNK N   1      26.199  54.827  60.440  0.00  0.00     0.218 HD
ENDBRANCH  34  39
ENDBRANCH   6  31
TORSDOF 9
ENDMDL
MODEL 5
REMARK VINA RESULT:      -5.7     15.297     20.209
REMARK  9 active torsions:
REMARK  status: ('A' for Active; 'I' for Inactive)
REMARK    1  A    between atoms: C_6  and  C_10 
REMARK    2  A    between atoms: C_7  and  O_8 
REMARK    3  A    between atoms: C_14  and  C_30 
REMARK    4  A    between atoms: C_15  and  C_20 
REMARK    5  A    between atoms: C_22  and  O_23 
REMARK    6  A    between atoms: C_25  and  O_26 
REMARK    7  A    between atoms: C_30  and  O_31 
REMARK    8  A    between atoms: C_34  and  O_35 
REMARK    9  A    between atoms: C_38  and  O_39 
ROOT
HETATM    1  C   UNK N   1      29.562  56.379  40.414  0.00  0.00    -0.023 A 
HETATM    2  C   UNK N   1      30.051  56.165  41.716  0.00  0.00     0.049 A 
HETATM    3  C   UNK N   1      30.631  54.946  42.061  0.00  0.00     0.103 A 
HETATM    4  O   UNK N   1      31.108  54.732  43.313  0.00  0.00    -0.338 OA
HETATM    5  C   UNK N   1      31.965  53.669  43.567  0.00  0.00     0.186 C 
HETATM    6  C   UNK N   1      31.428  52.416  42.819  0.00  0.00     0.193 C 
HETATM    7  O   UNK N   1      31.274  52.732  41.477  0.00  0.00    -0.336 OA
HETATM    8  C   UNK N   1      30.727  53.917  41.110  0.00  0.00     0.103 A 
HETATM    9  C   UNK N   1      30.262  54.117  39.812  0.00  0.00     0.040 A 
HETATM   10  C   UNK N   1      29.676  55.337  39.461  0.00  0.00     0.013 A 
ENDROOT
BRANCH   1  11
HETATM   11  C   UNK N   1      28.924  57.732  40.106  0.00  0.00     0.198 C 
HETATM   12  O   UNK N   1      27.967  57.555  39.122  0.00  0.00    -0.337 OA
HETATM   13  C   UNK N   1      26.750  57.008  39.392  0.00  0.00     0.089 A 
HETATM   14  C   UNK N   1      26.209  57.065  40.704  0.00  0.00     0.079 A 
HETATM   15  C   UNK N   1      26.036  56.400  38.357  0.00  0.00     0.074 A 
HETATM   16  C   UNK N   1      27.008  57.812  41.730  0.00  0.00     0.196 C 
HETATM   17  C   UNK N   1      24.936  56.465  40.948  0.00  0.00     0.085 A 
HETATM   18  O   UNK N   1      26.578  58.028  42.850  0.00  0.00    -0.289 OA
HETATM   19  C   UNK N   1      28.300  58.470  41.312  0.00  0.00     0.227 C 
HETATM   20  C   UNK N   1      24.250  55.853  39.891  0.00  0.00     0.074 A 
HETATM   21  C   UNK N   1      24.787  55.822  38.605  0.00  0.00     0.071 A 
BRANCH  19  22
HETATM   22  O   UNK N   1      28.058  59.822  41.011  0.00  0.00    -0.385 OA
HETATM   23  H   UNK N   1      28.203  60.352  41.838  0.00  0.00     0.210 HD
ENDBRANCH  19  22
BRANCH  17  24
HETATM   24  O   UNK N   1      24.335  56.453  42.160  0.00  0.00    -0.360 OA
HETATM   25  H   UNK N   1      24.782  56.380  43.008  0.00  0.00     0.217 HD
ENDBRANCH  17  24
BRANCH  21  26
HETATM   26  O   UNK N   1      24.094  55.231  37.610  0.00  0.00    -0.361 OA
HETATM   27  H   UNK N   1      24.235  54.303  37.371  0.00  0.00     0.217 HD
ENDBRANCH  21  26
ENDBRANCH   1  11
BRANCH   5  28
HETATM   28  C   UNK N   1      32.120  53.462  45.076  0.00  0.00     0.199 C 
BRANCH  28  29
HETATM   29  O   UNK N   1      31.019  54.025  45.734  0.00  0.00    -0.398 OA
HETATM   30  H   UNK N   1      31.002  54.982  45.473  0.00  0.00     0.209 HD
ENDBRANCH  28  29
ENDBRANCH   5  28
BRANCH   6  31
HETATM   31  C   UNK N   1      32.268  51.163  42.945  0.00  0.00    -0.024 A 
HETATM   32  C   UNK N   1      33.633  51.283  43.250  0.00  0.00     0.049 A 
HETATM   33  C   UNK N   1      34.444  50.137  43.390  0.00  0.00     0.101 A 
HETATM   34  C   UNK N   1      33.870  48.864  43.206  0.00  0.00     0.099 A 
HETATM   35  C   UNK N   1      32.510  48.747  42.907  0.00  0.00     0.040 A 
HETATM   36  C   UNK N   1      31.710  49.881  42.789  0.00  0.00     0.013 A 
BRANCH  33  37
HETATM   37  O   UNK N   1      35.765  50.229  43.701  0.00  0.00    -0.353 OA
HETATM   38  C   UNK N   1      36.807  49.975  42.830  0.00  0.00     0.210 C 
ENDBRANCH  33  37
BRANCH  34  39
HETATM   39  O   UNK N   1      34.611  47.741  43.321  0.00  0.00    -0.358 OA
HETATM   40  H   UNK N   1      34.603  47.044  42.651  0.00  0.00     0.218 HD
ENDBRANCH  34  39
ENDBRANCH   6  31
TORSDOF 9
ENDMDL
MODEL 6
REMARK VINA RESULT:      -5.6     18.815     21.354
REMARK  9 active torsions:
REMARK  status: ('A' for Active; 'I' for Inactive)
REMARK    1  A    between atoms: C_6  and  C_10 
REMARK    2  A    between atoms: C_7  and  O_8 
REMARK    3  A    between atoms: C_14  and  C_30 
REMARK    4  A    between atoms: C_15  and  C_20 
REMARK    5  A    between atoms: C_22  and  O_23 
REMARK    6  A    between atoms: C_25  and  O_26 
REMARK    7  A    between atoms: C_30  and  O_31 
REMARK    8  A    between atoms: C_34  and  O_35 
REMARK    9  A    between atoms: C_38  and  O_39 
ROOT
HETATM    1  C   UNK N   1      49.640  52.758  60.996  0.00  0.00    -0.023 A 
HETATM    2  C   UNK N   1      48.561  53.644  60.821  0.00  0.00     0.049 A 
HETATM    3  C   UNK N   1      48.572  54.574  59.783  0.00  0.00     0.103 A 
HETATM    4  O   UNK N   1      47.534  55.429  59.605  0.00  0.00    -0.338 OA
HETATM    5  C   UNK N   1      47.388  56.117  58.407  0.00  0.00     0.186 C 
HETATM    6  C   UNK N   1      48.784  56.640  57.968  0.00  0.00     0.193 C 
HETATM    7  O   UNK N   1      49.664  55.568  57.920  0.00  0.00    -0.336 OA
HETATM    8  C   UNK N   1      49.667  54.638  58.907  0.00  0.00     0.103 A 
HETATM    9  C   UNK N   1      50.737  53.759  59.056  0.00  0.00     0.040 A 
HETATM   10  C   UNK N   1      50.733  52.826  60.097  0.00  0.00     0.013 A 
ENDROOT
BRANCH   1  11
HETATM   11  C   UNK N   1      49.572  51.773  62.161  0.00  0.00     0.198 C 
HETATM   12  O   UNK N   1      48.241  51.495  62.426  0.00  0.00    -0.337 OA
HETATM   13  C   UNK N   1      47.510  50.661  61.637  0.00  0.00     0.089 A 
HETATM   14  C   UNK N   1      48.150  49.668  60.850  0.00  0.00     0.079 A 
HETATM   15  C   UNK N   1      46.119  50.790  61.621  0.00  0.00     0.074 A 
HETATM   16  C   UNK N   1      49.638  49.547  60.996  0.00  0.00     0.196 C 
HETATM   17  C   UNK N   1      47.347  48.823  60.024  0.00  0.00     0.085 A 
HETATM   18  O   UNK N   1      50.268  48.650  60.465  0.00  0.00    -0.289 OA
HETATM   19  C   UNK N   1      50.351  50.453  61.971  0.00  0.00     0.227 C 
HETATM   20  C   UNK N   1      45.955  48.985  60.023  0.00  0.00     0.074 A 
HETATM   21  C   UNK N   1      45.341  49.953  60.815  0.00  0.00     0.071 A 
BRANCH  19  22
HETATM   22  O   UNK N   1      50.517  49.781  63.194  0.00  0.00    -0.385 OA
HETATM   23  H   UNK N   1      51.119  49.006  63.041  0.00  0.00     0.210 HD
ENDBRANCH  19  22
BRANCH  17  24
HETATM   24  O   UNK N   1      47.855  47.853  59.229  0.00  0.00    -0.360 OA
HETATM   25  H   UNK N   1      47.420  47.026  59.005  0.00  0.00     0.217 HD
ENDBRANCH  17  24
BRANCH  21  26
HETATM   26  O   UNK N   1      43.998  50.075  60.794  0.00  0.00    -0.361 OA
HETATM   27  H   UNK N   1      43.417  49.374  61.123  0.00  0.00     0.217 HD
ENDBRANCH  21  26
ENDBRANCH   1  11
BRANCH   5  28
HETATM   28  C   UNK N   1      46.339  57.223  58.556  0.00  0.00     0.199 C 
BRANCH  28  29
HETATM   29  O   UNK N   1      45.255  56.734  59.298  0.00  0.00    -0.398 OA
HETATM   30  H   UNK N   1      45.432  56.984  60.242  0.00  0.00     0.209 HD
ENDBRANCH  28  29
ENDBRANCH   5  28
BRANCH   6  31
HETATM   31  C   UNK N   1      48.825  57.380  56.648  0.00  0.00    -0.024 A 
HETATM   32  C   UNK N   1      49.177  56.683  55.483  0.00  0.00     0.049 A 
HETATM   33  C   UNK N   1      49.210  57.336  54.233  0.00  0.00     0.101 A 
HETATM   34  C   UNK N   1      48.899  58.709  54.168  0.00  0.00     0.099 A 
HETATM   35  C   UNK N   1      48.544  59.400  55.329  0.00  0.00     0.040 A 
HETATM   36  C   UNK N   1      48.494  58.745  56.557  0.00  0.00     0.013 A 
BRANCH  33  37
HETATM   37  O   UNK N   1      49.533  56.676  53.088  0.00  0.00    -0.353 OA
HETATM   38  C   UNK N   1      50.137  55.435  53.029  0.00  0.00     0.210 C 
ENDBRANCH  33  37
BRANCH  34  39
HETATM   39  O   UNK N   1      48.929  59.376  52.995  0.00  0.00    -0.358 OA
HETATM   40  H   UNK N   1      48.937  60.342  52.948  0.00  0.00     0.218 HD
ENDBRANCH  34  39
ENDBRANCH   6  31
TORSDOF 9
ENDMDL
MODEL 7
REMARK VINA RESULT:      -5.6     18.611     21.238
REMARK  9 active torsions:
REMARK  status: ('A' for Active; 'I' for Inactive)
REMARK    1  A    between atoms: C_6  and  C_10 
REMARK    2  A    between atoms: C_7  and  O_8 
REMARK    3  A    between atoms: C_14  and  C_30 
REMARK    4  A    between atoms: C_15  and  C_20 
REMARK    5  A    between atoms: C_22  and  O_23 
REMARK    6  A    between atoms: C_25  and  O_26 
REMARK    7  A    between atoms: C_30  and  O_31 
REMARK    8  A    between atoms: C_34  and  O_35 
REMARK    9  A    between atoms: C_38  and  O_39 
ROOT
HETATM    1  C   UNK N   1      48.178  53.029  61.911  0.00  0.00    -0.023 A 
HETATM    2  C   UNK N   1      47.530  54.046  61.186  0.00  0.00     0.049 A 
HETATM    3  C   UNK N   1      48.055  54.494  59.975  0.00  0.00     0.103 A 
HETATM    4  O   UNK N   1      47.434  55.471  59.267  0.00  0.00    -0.338 OA
HETATM    5  C   UNK N   1      47.759  55.688  57.934  0.00  0.00     0.186 C 
HETATM    6  C   UNK N   1      49.305  55.616  57.787  0.00  0.00     0.193 C 
HETATM    7  O   UNK N   1      49.744  54.407  58.304  0.00  0.00    -0.336 OA
HETATM    8  C   UNK N   1      49.242  53.936  59.472  0.00  0.00     0.103 A 
HETATM    9  C   UNK N   1      49.888  52.919  60.169  0.00  0.00     0.040 A 
HETATM   10  C   UNK N   1      49.368  52.467  61.386  0.00  0.00     0.013 A 
ENDROOT
BRANCH   1  11
HETATM   11  C   UNK N   1      47.558  52.595  63.237  0.00  0.00     0.198 C 
HETATM   12  O   UNK N   1      46.184  52.526  63.080  0.00  0.00    -0.337 OA
HETATM   13  C   UNK N   1      45.586  51.493  62.426  0.00  0.00     0.089 A 
HETATM   14  C   UNK N   1      46.231  50.232  62.327  0.00  0.00     0.079 A 
HETATM   15  C   UNK N   1      44.323  51.689  61.862  0.00  0.00     0.074 A 
HETATM   16  C   UNK N   1      47.545  50.089  63.036  0.00  0.00     0.196 C 
HETATM   17  C   UNK N   1      45.575  49.178  61.619  0.00  0.00     0.085 A 
HETATM   18  O   UNK N   1      48.119  49.018  63.121  0.00  0.00    -0.289 OA
HETATM   19  C   UNK N   1      48.083  51.263  63.819  0.00  0.00     0.227 C 
HETATM   20  C   UNK N   1      44.313  49.411  61.056  0.00  0.00     0.074 A 
HETATM   21  C   UNK N   1      43.686  50.649  61.177  0.00  0.00     0.071 A 
BRANCH  19  22
HETATM   22  O   UNK N   1      47.725  51.123  65.171  0.00  0.00    -0.385 OA
HETATM   23  H   UNK N   1      47.923  50.190  65.448  0.00  0.00     0.210 HD
ENDBRANCH  19  22
BRANCH  17  24
HETATM   24  O   UNK N   1      46.104  47.944  61.457  0.00  0.00    -0.360 OA
HETATM   25  H   UNK N   1      46.118  47.248  62.119  0.00  0.00     0.217 HD
ENDBRANCH  17  24
BRANCH  21  26
HETATM   26  O   UNK N   1      42.468  50.834  60.629  0.00  0.00    -0.361 OA
HETATM   27  H   UNK N   1      41.865  50.094  60.464  0.00  0.00     0.217 HD
ENDBRANCH  21  26
ENDBRANCH   1  11
BRANCH   5  28
HETATM   28  C   UNK N   1      47.158  57.010  57.450  0.00  0.00     0.199 C 
BRANCH  28  29
HETATM   29  O   UNK N   1      45.898  57.186  58.037  0.00  0.00    -0.398 OA
HETATM   30  H   UNK N   1      46.060  57.608  58.920  0.00  0.00     0.209 HD
ENDBRANCH  28  29
ENDBRANCH   5  28
BRANCH   6  31
HETATM   31  C   UNK N   1      49.841  55.784  56.381  0.00  0.00    -0.024 A 
HETATM   32  C   UNK N   1      50.306  57.044  55.973  0.00  0.00     0.049 A 
HETATM   33  C   UNK N   1      50.826  57.235  54.675  0.00  0.00     0.101 A 
HETATM   34  C   UNK N   1      50.862  56.145  53.783  0.00  0.00     0.099 A 
HETATM   35  C   UNK N   1      50.402  54.891  54.194  0.00  0.00     0.040 A 
HETATM   36  C   UNK N   1      49.907  54.704  55.482  0.00  0.00     0.013 A 
BRANCH  33  37
HETATM   37  O   UNK N   1      51.298  58.443  54.264  0.00  0.00    -0.353 OA
HETATM   38  C   UNK N   1      50.525  59.462  53.743  0.00  0.00     0.210 C 
ENDBRANCH  33  37
BRANCH  34  39
HETATM   39  O   UNK N   1      51.341  56.286  52.529  0.00  0.00    -0.358 OA
HETATM   40  H   UNK N   1      52.233  56.007  52.281  0.00  0.00     0.218 HD
ENDBRANCH  34  39
ENDBRANCH   6  31
TORSDOF 9
ENDMDL
MODEL 8
REMARK VINA RESULT:      -5.5     18.407     21.232
REMARK  9 active torsions:
REMARK  status: ('A' for Active; 'I' for Inactive)
REMARK    1  A    between atoms: C_6  and  C_10 
REMARK    2  A    between atoms: C_7  and  O_8 
REMARK    3  A    between atoms: C_14  and  C_30 
REMARK    4  A    between atoms: C_15  and  C_20 
REMARK    5  A    between atoms: C_22  and  O_23 
REMARK    6  A    between atoms: C_25  and  O_26 
REMARK    7  A    between atoms: C_30  and  O_31 
REMARK    8  A    between atoms: C_34  and  O_35 
REMARK    9  A    between atoms: C_38  and  O_39 
ROOT
HETATM    1  C   UNK N   1      48.812  51.357  61.607  0.00  0.00    -0.023 A 
HETATM    2  C   UNK N   1      48.306  52.627  61.275  0.00  0.00     0.049 A 
HETATM    3  C   UNK N   1      48.659  53.235  60.071  0.00  0.00     0.103 A 
HETATM    4  O   UNK N   1      48.173  54.459  59.742  0.00  0.00    -0.338 OA
HETATM    5  C   UNK N   1      48.251  54.917  58.433  0.00  0.00     0.186 C 
HETATM    6  C   UNK N   1      49.660  54.569  57.875  0.00  0.00     0.193 C 
HETATM    7  O   UNK N   1      49.875  53.208  58.029  0.00  0.00    -0.336 OA
HETATM    8  C   UNK N   1      49.529  52.585  59.182  0.00  0.00     0.103 A 
HETATM    9  C   UNK N   1      50.027  51.320  59.488  0.00  0.00     0.040 A 
HETATM   10  C   UNK N   1      49.679  50.707  60.695  0.00  0.00     0.013 A 
ENDROOT
BRANCH   1  11
HETATM   11  C   UNK N   1      48.397  50.754  62.947  0.00  0.00     0.198 C 
HETATM   12  O   UNK N   1      47.424  51.561  63.513  0.00  0.00    -0.337 OA
HETATM   13  C   UNK N   1      46.136  51.549  63.073  0.00  0.00     0.089 A 
HETATM   14  C   UNK N   1      45.610  50.409  62.410  0.00  0.00     0.079 A 
HETATM   15  C   UNK N   1      45.335  52.672  63.294  0.00  0.00     0.074 A 
HETATM   16  C   UNK N   1      46.517  49.219  62.295  0.00  0.00     0.196 C 
HETATM   17  C   UNK N   1      44.258  50.443  61.951  0.00  0.00     0.085 A 
HETATM   18  O   UNK N   1      46.126  48.151  61.859  0.00  0.00    -0.289 OA
HETATM   19  C   UNK N   1      47.898  49.292  62.900  0.00  0.00     0.227 C 
HETATM   20  C   UNK N   1      43.484  51.589  62.179  0.00  0.00     0.074 A 
HETATM   21  C   UNK N   1      44.010  52.693  62.848  0.00  0.00     0.071 A 
BRANCH  19  22
HETATM   22  O   UNK N   1      47.873  48.722  64.185  0.00  0.00    -0.385 OA
HETATM   23  H   UNK N   1      47.340  47.885  64.140  0.00  0.00     0.210 HD
ENDBRANCH  19  22
BRANCH  17  24
HETATM   24  O   UNK N   1      43.662  49.417  61.301  0.00  0.00    -0.360 OA
HETATM   25  H   UNK N   1      42.715  49.296  61.193  0.00  0.00     0.217 HD
ENDBRANCH  17  24
BRANCH  21  26
HETATM   26  O   UNK N   1      43.233  53.776  63.056  0.00  0.00    -0.361 OA
HETATM   27  H   UNK N   1      43.162  54.194  63.926  0.00  0.00     0.217 HD
ENDBRANCH  21  26
ENDBRANCH   1  11
BRANCH   5  28
HETATM   28  C   UNK N   1      47.919  56.410  58.374  0.00  0.00     0.199 C 
BRANCH  28  29
HETATM   29  O   UNK N   1      46.548  56.569  58.132  0.00  0.00    -0.398 OA
HETATM   30  H   UNK N   1      46.104  56.520  59.018  0.00  0.00     0.209 HD
ENDBRANCH  28  29
ENDBRANCH   5  28
BRANCH   6  31
HETATM   31  C   UNK N   1      49.910  54.956  56.432  0.00  0.00    -0.024 A 
HETATM   32  C   UNK N   1      50.762  54.162  55.650  0.00  0.00     0.049 A 
HETATM   33  C   UNK N   1      51.007  54.483  54.297  0.00  0.00     0.101 A 
HETATM   34  C   UNK N   1      50.395  55.624  53.742  0.00  0.00     0.099 A 
HETATM   35  C   UNK N   1      49.543  56.411  54.523  0.00  0.00     0.040 A 
HETATM   36  C   UNK N   1      49.291  56.077  55.851  0.00  0.00     0.013 A 
BRANCH  33  37
HETATM   37  O   UNK N   1      51.815  53.718  53.515  0.00  0.00    -0.353 OA
HETATM   38  C   UNK N   1      53.193  53.669  53.605  0.00  0.00     0.210 C 
ENDBRANCH  33  37
BRANCH  34  39
HETATM   39  O   UNK N   1      50.610  55.974  52.456  0.00  0.00    -0.358 OA
HETATM   40  H   UNK N   1      50.658  55.323  51.742  0.00  0.00     0.218 HD
ENDBRANCH  34  39
ENDBRANCH   6  31
TORSDOF 9
ENDMDL
MODEL 9
REMARK VINA RESULT:      -5.5      2.897      4.407
REMARK  9 active torsions:
REMARK  status: ('A' for Active; 'I' for Inactive)
REMARK    1  A    between atoms: C_6  and  C_10 
REMARK    2  A    between atoms: C_7  and  O_8 
REMARK    3  A    between atoms: C_14  and  C_30 
REMARK    4  A    between atoms: C_15  and  C_20 
REMARK    5  A    between atoms: C_22  and  O_23 
REMARK    6  A    between atoms: C_25  and  O_26 
REMARK    7  A    between atoms: C_30  and  O_31 
REMARK    8  A    between atoms: C_34  and  O_35 
REMARK    9  A    between atoms: C_38  and  O_39 
ROOT
HETATM    1  C   UNK N   1      28.662  43.186  57.126  0.00  0.00    -0.023 A 
HETATM    2  C   UNK N   1      27.498  43.953  57.322  0.00  0.00     0.049 A 
HETATM    3  C   UNK N   1      27.588  45.278  57.743  0.00  0.00     0.103 A 
HETATM    4  O   UNK N   1      26.471  46.025  57.931  0.00  0.00    -0.338 OA
HETATM    5  C   UNK N   1      26.558  47.408  58.026  0.00  0.00     0.186 C 
HETATM    6  C   UNK N   1      27.775  47.762  58.927  0.00  0.00     0.193 C 
HETATM    7  O   UNK N   1      28.903  47.142  58.412  0.00  0.00    -0.336 OA
HETATM    8  C   UNK N   1      28.844  45.858  57.981  0.00  0.00     0.103 A 
HETATM    9  C   UNK N   1      30.007  45.119  57.777  0.00  0.00     0.040 A 
HETATM   10  C   UNK N   1      29.923  43.788  57.358  0.00  0.00     0.013 A 
ENDROOT
BRANCH   1  11
HETATM   11  C   UNK N   1      28.492  41.736  56.678  0.00  0.00     0.198 C 
HETATM   12  O   UNK N   1      27.372  41.652  55.868  0.00  0.00    -0.337 OA
HETATM   13  C   UNK N   1      27.385  42.083  54.577  0.00  0.00     0.089 A 
HETATM   14  C   UNK N   1      28.604  42.152  53.852  0.00  0.00     0.079 A 
HETATM   15  C   UNK N   1      26.180  42.444  53.971  0.00  0.00     0.074 A 
HETATM   16  C   UNK N   1      29.836  41.662  54.555  0.00  0.00     0.196 C 
HETATM   17  C   UNK N   1      28.576  42.624  52.504  0.00  0.00     0.085 A 
HETATM   18  O   UNK N   1      30.907  41.560  53.985  0.00  0.00    -0.289 OA
HETATM   19  C   UNK N   1      29.706  41.111  55.955  0.00  0.00     0.227 C 
HETATM   20  C   UNK N   1      27.352  42.989  51.929  0.00  0.00     0.074 A 
HETATM   21  C   UNK N   1      26.161  42.898  52.648  0.00  0.00     0.071 A 
BRANCH  19  22
HETATM   22  O   UNK N   1      29.595  39.711  55.895  0.00  0.00    -0.385 OA
HETATM   23  H   UNK N   1      30.509  39.327  55.960  0.00  0.00     0.210 HD
ENDBRANCH  19  22
BRANCH  17  24
HETATM   24  O   UNK N   1      29.679  42.739  51.728  0.00  0.00    -0.360 OA
HETATM   25  H   UNK N   1      29.847  43.438  51.091  0.00  0.00     0.217 HD
ENDBRANCH  17  24
BRANCH  21  26
HETATM   26  O   UNK N   1      25.001  43.251  52.060  0.00  0.00    -0.361 OA
HETATM   27  H   UNK N   1      24.977  43.831  51.285  0.00  0.00     0.217 HD
ENDBRANCH  21  26
ENDBRANCH   1  11
BRANCH   5  28
HETATM   28  C   UNK N   1      25.233  47.989  58.529  0.00  0.00     0.199 C 
BRANCH  28  29
HETATM   29  O   UNK N   1      24.527  48.530  57.447  0.00  0.00    -0.398 OA
HETATM   30  H   UNK N   1      23.734  48.985  57.835  0.00  0.00     0.209 HD
ENDBRANCH  28  29
ENDBRANCH   5  28
BRANCH   6  31
HETATM   31  C   UNK N   1      28.053  49.240  59.107  0.00  0.00    -0.024 A 
HETATM   32  C   UNK N   1      27.924  49.809  60.383  0.00  0.00     0.049 A 
HETATM   33  C   UNK N   1      28.189  51.179  60.592  0.00  0.00     0.101 A 
HETATM   34  C   UNK N   1      28.574  51.978  59.497  0.00  0.00     0.099 A 
HETATM   35  C   UNK N   1      28.706  51.407  58.228  0.00  0.00     0.040 A 
HETATM   36  C   UNK N   1      28.461  50.050  58.032  0.00  0.00     0.013 A 
BRANCH  33  37
HETATM   37  O   UNK N   1      28.087  51.749  61.823  0.00  0.00    -0.353 OA
HETATM   38  C   UNK N   1      28.948  51.521  62.878  0.00  0.00     0.210 C 
ENDBRANCH  33  37
BRANCH  34  39
HETATM   39  O   UNK N   1      28.827  53.295  59.649  0.00  0.00    -0.358 OA
HETATM   40  H   UNK N   1      29.415  53.634  60.338  0.00  0.00     0.218 HD
ENDBRANCH  34  39
ENDBRANCH   6  31
TORSDOF 9
ENDMDL
