MODEL 1
REMARK VINA RESULT:      -6.7      0.000      0.000
REMARK  6 active torsions:
REMARK  status: ('A' for Active; 'I' for Inactive)
REMARK    1  A    between atoms: C_2  and  O_3 
REMARK    2  A    between atoms: C_2  and  C_21 
REMARK    3  A    between atoms: O_3  and  C_4 
REMARK    4  A    between atoms: C_6  and  O_7 
REMARK    5  A    between atoms: C_6  and  C_9 
REMARK    6  A    between atoms: C_24  and  O_25 
ROOT
HETATM    1  C   UNK N   1      41.877  46.511  47.103  0.00  0.00     0.144 C 
HETATM    2  C   UNK N   1      40.349  46.753  47.137  0.00  0.00     0.058 C 
HETATM    3  C   UNK N   1      39.725  47.683  46.048  0.00  0.00     0.067 C 
HETATM    4  C   UNK N   1      38.228  47.323  46.186  0.00  0.00     0.039 C 
HETATM    5  C   UNK N   1      38.276  45.798  46.243  0.00  0.00     0.013 C 
HETATM    6  C   UNK N   1      39.404  45.506  47.256  0.00  0.00    -0.032 C 
HETATM    7  C   UNK N   1      40.080  44.134  47.022  0.00  0.00     0.037 C 
HETATM    8  C   UNK N   1      40.751  43.926  45.696  0.00  0.00    -0.023 C 
HETATM    9  C   UNK N   1      41.789  44.636  45.191  0.00  0.00    -0.085 C 
HETATM   10  C   UNK N   1      42.443  45.864  45.816  0.00  0.00     0.066 C 
HETATM   11  C   UNK N   1      42.366  44.202  43.864  0.00  0.00     0.043 C 
HETATM   12  C   UNK N   1      38.791  45.452  48.688  0.00  0.00     0.016 C 
ENDROOT
BRANCH   1  13
HETATM   13  O   UNK N   1      42.249  45.794  48.222  0.00  0.00    -0.311 OA
BRANCH  13  14
HETATM   14  C   UNK N   1      42.317  46.325  49.472  0.00  0.00     0.293 C 
HETATM   15  O   UNK N   1      42.740  47.460  49.643  0.00  0.00    -0.259 OA
BRANCH  14  16
HETATM   16  C   UNK N   1      41.847  45.530  50.623  0.00  0.00     0.039 A 
HETATM   17  C   UNK N   1      41.022  44.413  50.419  0.00  0.00     0.020 A 
HETATM   18  C   UNK N   1      40.579  43.658  51.505  0.00  0.00     0.038 A 
HETATM   19  C   UNK N   1      40.948  44.007  52.809  0.00  0.00     0.068 A 
HETATM   20  C   UNK N   1      41.774  45.131  53.014  0.00  0.00     0.038 A 
HETATM   21  C   UNK N   1      42.220  45.884  51.928  0.00  0.00     0.020 A 
BRANCH  19  22
HETATM   22  O   UNK N   1      40.493  43.246  53.837  0.00  0.00    -0.356 OA
HETATM   23  C   UNK N   1      39.327  42.508  53.812  0.00  0.00     0.210 C 
ENDBRANCH  19  22
ENDBRANCH  14  16
ENDBRANCH  13  14
ENDBRANCH   1  13
BRANCH   3  24
HETATM   24  O   UNK N   1      40.180  47.259  44.780  0.00  0.00    -0.389 OA
HETATM   25  H   UNK N   1      39.464  46.744  44.327  0.00  0.00     0.210 HD
ENDBRANCH   3  24
BRANCH   3  26
HETATM   26  C   UNK N   1      40.070  49.212  46.234  0.00  0.00     0.012 C 
HETATM   27  C   UNK N   1      40.403  49.891  44.894  0.00  0.00     0.012 C 
HETATM   28  C   UNK N   1      38.967  50.046  46.927  0.00  0.00     0.012 C 
ENDBRANCH   3  26
TORSDOF 6
ENDMDL
MODEL 2
REMARK VINA RESULT:      -6.7      2.761      7.474
REMARK  6 active torsions:
REMARK  status: ('A' for Active; 'I' for Inactive)
REMARK    1  A    between atoms: C_2  and  O_3 
REMARK    2  A    between atoms: C_2  and  C_21 
REMARK    3  A    between atoms: O_3  and  C_4 
REMARK    4  A    between atoms: C_6  and  O_7 
REMARK    5  A    between atoms: C_6  and  C_9 
REMARK    6  A    between atoms: C_24  and  O_25 
ROOT
HETATM    1  C   UNK N   1      40.735  46.526  45.879  0.00  0.00     0.144 C 
HETATM    2  C   UNK N   1      40.671  45.279  46.794  0.00  0.00     0.058 C 
HETATM    3  C   UNK N   1      41.754  44.169  46.605  0.00  0.00     0.067 C 
HETATM    4  C   UNK N   1      41.582  43.373  47.919  0.00  0.00     0.039 C 
HETATM    5  C   UNK N   1      41.514  44.491  48.957  0.00  0.00     0.013 C 
HETATM    6  C   UNK N   1      40.523  45.501  48.340  0.00  0.00    -0.032 C 
HETATM    7  C   UNK N   1      40.760  46.950  48.829  0.00  0.00     0.037 C 
HETATM    8  C   UNK N   1      42.098  47.558  48.527  0.00  0.00    -0.023 C 
HETATM    9  C   UNK N   1      42.630  47.779  47.300  0.00  0.00    -0.085 C 
HETATM   10  C   UNK N   1      42.029  47.372  45.959  0.00  0.00     0.066 C 
HETATM   11  C   UNK N   1      43.965  48.480  47.223  0.00  0.00     0.043 C 
HETATM   12  C   UNK N   1      39.078  45.121  48.785  0.00  0.00     0.016 C 
ENDROOT
BRANCH   1  13
HETATM   13  O   UNK N   1      39.619  47.307  46.096  0.00  0.00    -0.311 OA
BRANCH  13  14
HETATM   14  C   UNK N   1      38.763  47.694  45.113  0.00  0.00     0.293 C 
HETATM   15  O   UNK N   1      37.744  47.056  44.890  0.00  0.00    -0.259 OA
BRANCH  14  16
HETATM   16  C   UNK N   1      39.058  48.912  44.335  0.00  0.00     0.039 A 
HETATM   17  C   UNK N   1      38.547  49.060  43.036  0.00  0.00     0.020 A 
HETATM   18  C   UNK N   1      38.822  50.212  42.299  0.00  0.00     0.038 A 
HETATM   19  C   UNK N   1      39.613  51.230  42.842  0.00  0.00     0.068 A 
HETATM   20  C   UNK N   1      40.130  51.079  44.146  0.00  0.00     0.038 A 
HETATM   21  C   UNK N   1      39.852  49.929  44.884  0.00  0.00     0.020 A 
BRANCH  19  22
HETATM   22  O   UNK N   1      39.858  52.334  42.090  0.00  0.00    -0.356 OA
HETATM   23  C   UNK N   1      40.038  53.604  42.597  0.00  0.00     0.210 C 
ENDBRANCH  19  22
ENDBRANCH  14  16
ENDBRANCH  13  14
ENDBRANCH   1  13
BRANCH   3  24
HETATM   24  O   UNK N   1      43.028  44.779  46.607  0.00  0.00    -0.389 OA
HETATM   25  H   UNK N   1      43.123  45.348  45.801  0.00  0.00     0.210 HD
ENDBRANCH   3  24
BRANCH   3  26
HETATM   26  C   UNK N   1      41.588  43.327  45.280  0.00  0.00     0.012 C 
HETATM   27  C   UNK N   1      42.022  44.124  44.038  0.00  0.00     0.012 C 
HETATM   28  C   UNK N   1      42.347  41.979  45.270  0.00  0.00     0.012 C 
ENDBRANCH   3  26
TORSDOF 6
ENDMDL
MODEL 3
REMARK VINA RESULT:      -6.4     11.645     15.346
REMARK  6 active torsions:
REMARK  status: ('A' for Active; 'I' for Inactive)
REMARK    1  A    between atoms: C_2  and  O_3 
REMARK    2  A    between atoms: C_2  and  C_21 
REMARK    3  A    between atoms: O_3  and  C_4 
REMARK    4  A    between atoms: C_6  and  O_7 
REMARK    5  A    between atoms: C_6  and  C_9 
REMARK    6  A    between atoms: C_24  and  O_25 
ROOT
HETATM    1  C   UNK N   1      29.250  54.546  42.046  0.00  0.00     0.144 C 
HETATM    2  C   UNK N   1      29.213  54.127  40.557  0.00  0.00     0.058 C 
HETATM    3  C   UNK N   1      27.823  53.825  39.909  0.00  0.00     0.067 C 
HETATM    4  C   UNK N   1      28.191  53.865  38.409  0.00  0.00     0.039 C 
HETATM    5  C   UNK N   1      29.042  55.131  38.327  0.00  0.00     0.013 C 
HETATM    6  C   UNK N   1      30.010  54.997  39.523  0.00  0.00    -0.032 C 
HETATM    7  C   UNK N   1      30.507  56.364  40.048  0.00  0.00     0.037 C 
HETATM    8  C   UNK N   1      29.465  57.315  40.559  0.00  0.00    -0.023 C 
HETATM    9  C   UNK N   1      28.620  57.111  41.598  0.00  0.00    -0.085 C 
HETATM   10  C   UNK N   1      28.476  55.833  42.418  0.00  0.00     0.066 C 
HETATM   11  C   UNK N   1      27.699  58.240  41.996  0.00  0.00     0.043 C 
HETATM   12  C   UNK N   1      31.278  54.220  39.057  0.00  0.00     0.016 C 
ENDROOT
BRANCH   1  13
HETATM   13  O   UNK N   1      30.562  54.618  42.466  0.00  0.00    -0.311 OA
BRANCH  13  14
HETATM   14  C   UNK N   1      31.014  54.088  43.634  0.00  0.00     0.293 C 
HETATM   15  O   UNK N   1      30.602  54.507  44.707  0.00  0.00    -0.259 OA
BRANCH  14  16
HETATM   16  C   UNK N   1      31.987  52.979  43.597  0.00  0.00     0.039 A 
HETATM   17  C   UNK N   1      31.798  51.904  42.715  0.00  0.00     0.020 A 
HETATM   18  C   UNK N   1      32.718  50.856  42.676  0.00  0.00     0.038 A 
HETATM   19  C   UNK N   1      33.835  50.861  43.519  0.00  0.00     0.068 A 
HETATM   20  C   UNK N   1      34.022  51.939  44.409  0.00  0.00     0.038 A 
HETATM   21  C   UNK N   1      33.105  52.989  44.444  0.00  0.00     0.020 A 
BRANCH  19  22
HETATM   22  O   UNK N   1      34.704  49.820  43.451  0.00  0.00    -0.356 OA
HETATM   23  C   UNK N   1      36.035  49.931  43.103  0.00  0.00     0.210 C 
ENDBRANCH  19  22
ENDBRANCH  14  16
ENDBRANCH  13  14
ENDBRANCH   1  13
BRANCH   3  24
HETATM   24  O   UNK N   1      26.953  54.901  40.193  0.00  0.00    -0.389 OA
HETATM   25  H   UNK N   1      27.484  55.717  40.376  0.00  0.00     0.210 HD
ENDBRANCH   3  24
BRANCH   3  26
HETATM   26  C   UNK N   1      27.160  52.481  40.406  0.00  0.00     0.012 C 
HETATM   27  C   UNK N   1      25.827  52.204  39.691  0.00  0.00     0.012 C 
HETATM   28  C   UNK N   1      28.051  51.226  40.254  0.00  0.00     0.012 C 
ENDBRANCH   3  26
TORSDOF 6
ENDMDL
MODEL 4
REMARK VINA RESULT:      -5.9     13.025     16.766
REMARK  6 active torsions:
REMARK  status: ('A' for Active; 'I' for Inactive)
REMARK    1  A    between atoms: C_2  and  O_3 
REMARK    2  A    between atoms: C_2  and  C_21 
REMARK    3  A    between atoms: O_3  and  C_4 
REMARK    4  A    between atoms: C_6  and  O_7 
REMARK    5  A    between atoms: C_6  and  C_9 
REMARK    6  A    between atoms: C_24  and  O_25 
ROOT
HETATM    1  C   UNK N   1      28.110  55.160  42.056  0.00  0.00     0.144 C 
HETATM    2  C   UNK N   1      27.819  54.803  40.578  0.00  0.00     0.058 C 
HETATM    3  C   UNK N   1      26.709  53.745  40.280  0.00  0.00     0.067 C 
HETATM    4  C   UNK N   1      26.469  53.997  38.774  0.00  0.00     0.039 C 
HETATM    5  C   UNK N   1      26.392  55.521  38.719  0.00  0.00     0.013 C 
HETATM    6  C   UNK N   1      27.602  55.978  39.561  0.00  0.00    -0.032 C 
HETATM    7  C   UNK N   1      27.401  57.376  40.193  0.00  0.00     0.037 C 
HETATM    8  C   UNK N   1      26.248  57.532  41.141  0.00  0.00    -0.023 C 
HETATM    9  C   UNK N   1      26.061  56.868  42.307  0.00  0.00    -0.085 C 
HETATM   10  C   UNK N   1      26.930  55.747  42.867  0.00  0.00     0.066 C 
HETATM   11  C   UNK N   1      24.865  57.240  43.151  0.00  0.00     0.043 C 
HETATM   12  C   UNK N   1      28.846  56.095  38.629  0.00  0.00     0.016 C 
ENDROOT
BRANCH   1  13
HETATM   13  O   UNK N   1      29.212  55.988  42.114  0.00  0.00    -0.311 OA
BRANCH  13  14
HETATM   14  C   UNK N   1      30.485  55.573  41.876  0.00  0.00     0.293 C 
HETATM   15  O   UNK N   1      31.203  56.186  41.098  0.00  0.00    -0.259 OA
BRANCH  14  16
HETATM   16  C   UNK N   1      31.006  54.391  42.588  0.00  0.00     0.039 A 
HETATM   17  C   UNK N   1      31.142  53.166  41.916  0.00  0.00     0.020 A 
HETATM   18  C   UNK N   1      31.638  52.047  42.587  0.00  0.00     0.038 A 
HETATM   19  C   UNK N   1      32.001  52.132  43.935  0.00  0.00     0.068 A 
HETATM   20  C   UNK N   1      31.860  53.362  44.611  0.00  0.00     0.038 A 
HETATM   21  C   UNK N   1      31.368  54.480  43.940  0.00  0.00     0.020 A 
BRANCH  19  22
HETATM   22  O   UNK N   1      32.477  51.019  44.550  0.00  0.00    -0.356 OA
HETATM   23  C   UNK N   1      32.544  49.769  43.969  0.00  0.00     0.210 C 
ENDBRANCH  19  22
ENDBRANCH  14  16
ENDBRANCH  13  14
ENDBRANCH   1  13
BRANCH   3  24
HETATM   24  O   UNK N   1      25.543  54.104  40.992  0.00  0.00    -0.389 OA
HETATM   25  H   UNK N   1      25.201  53.315  41.486  0.00  0.00     0.210 HD
ENDBRANCH   3  24
BRANCH   3  26
HETATM   26  C   UNK N   1      27.111  52.266  40.660  0.00  0.00     0.012 C 
HETATM   27  C   UNK N   1      25.954  51.281  40.424  0.00  0.00     0.012 C 
HETATM   28  C   UNK N   1      28.356  51.724  39.921  0.00  0.00     0.012 C 
ENDBRANCH   3  26
TORSDOF 6
ENDMDL
MODEL 5
REMARK VINA RESULT:      -5.8     13.121     14.849
REMARK  6 active torsions:
REMARK  status: ('A' for Active; 'I' for Inactive)
REMARK    1  A    between atoms: C_2  and  O_3 
REMARK    2  A    between atoms: C_2  and  C_21 
REMARK    3  A    between atoms: O_3  and  C_4 
REMARK    4  A    between atoms: C_6  and  O_7 
REMARK    5  A    between atoms: C_6  and  C_9 
REMARK    6  A    between atoms: C_24  and  O_25 
ROOT
HETATM    1  C   UNK N   1      31.741  43.670  58.401  0.00  0.00     0.144 C 
HETATM    2  C   UNK N   1      30.539  44.077  59.287  0.00  0.00     0.058 C 
HETATM    3  C   UNK N   1      29.616  45.236  58.791  0.00  0.00     0.067 C 
HETATM    4  C   UNK N   1      28.384  45.032  59.703  0.00  0.00     0.039 C 
HETATM    5  C   UNK N   1      28.174  43.522  59.613  0.00  0.00     0.013 C 
HETATM    6  C   UNK N   1      29.590  42.943  59.815  0.00  0.00    -0.032 C 
HETATM    7  C   UNK N   1      29.774  41.559  59.149  0.00  0.00     0.037 C 
HETATM    8  C   UNK N   1      29.588  41.491  57.661  0.00  0.00    -0.023 C 
HETATM    9  C   UNK N   1      30.310  42.150  56.723  0.00  0.00    -0.085 C 
HETATM   10  C   UNK N   1      31.408  43.178  56.973  0.00  0.00     0.066 C 
HETATM   11  C   UNK N   1      30.004  41.873  55.270  0.00  0.00     0.043 C 
HETATM   12  C   UNK N   1      29.832  42.730  61.340  0.00  0.00     0.016 C 
ENDROOT
BRANCH   1  13
HETATM   13  O   UNK N   1      32.510  42.744  59.077  0.00  0.00    -0.311 OA
BRANCH  13  14
HETATM   14  C   UNK N   1      33.852  42.866  59.262  0.00  0.00     0.293 C 
HETATM   15  O   UNK N   1      34.634  42.506  58.394  0.00  0.00    -0.259 OA
BRANCH  14  16
HETATM   16  C   UNK N   1      34.359  43.466  60.511  0.00  0.00     0.039 A 
HETATM   17  C   UNK N   1      33.544  43.513  61.653  0.00  0.00     0.020 A 
HETATM   18  C   UNK N   1      34.022  44.076  62.836  0.00  0.00     0.038 A 
HETATM   19  C   UNK N   1      35.316  44.605  62.897  0.00  0.00     0.068 A 
HETATM   20  C   UNK N   1      36.134  44.561  61.749  0.00  0.00     0.038 A 
HETATM   21  C   UNK N   1      35.657  43.994  60.568  0.00  0.00     0.020 A 
BRANCH  19  22
HETATM   22  O   UNK N   1      35.742  45.145  64.068  0.00  0.00    -0.356 OA
HETATM   23  C   UNK N   1      37.042  45.096  64.529  0.00  0.00     0.210 C 
ENDBRANCH  19  22
ENDBRANCH  14  16
ENDBRANCH  13  14
ENDBRANCH   1  13
BRANCH   3  24
HETATM   24  O   UNK N   1      29.242  44.972  57.455  0.00  0.00    -0.389 OA
HETATM   25  H   UNK N   1      29.772  45.543  56.844  0.00  0.00     0.210 HD
ENDBRANCH   3  24
BRANCH   3  26
HETATM   26  C   UNK N   1      30.282  46.665  58.867  0.00  0.00     0.012 C 
HETATM   27  C   UNK N   1      30.615  47.215  57.470  0.00  0.00     0.012 C 
HETATM   28  C   UNK N   1      29.442  47.731  59.610  0.00  0.00     0.012 C 
ENDBRANCH   3  26
TORSDOF 6
ENDMDL
MODEL 6
REMARK VINA RESULT:      -5.7     12.592     14.770
REMARK  6 active torsions:
REMARK  status: ('A' for Active; 'I' for Inactive)
REMARK    1  A    between atoms: C_2  and  O_3 
REMARK    2  A    between atoms: C_2  and  C_21 
REMARK    3  A    between atoms: O_3  and  C_4 
REMARK    4  A    between atoms: C_6  and  O_7 
REMARK    5  A    between atoms: C_6  and  C_9 
REMARK    6  A    between atoms: C_24  and  O_25 
ROOT
HETATM    1  C   UNK N   1      30.110  41.646  55.276  0.00  0.00     0.144 C 
HETATM    2  C   UNK N   1      28.662  42.191  55.276  0.00  0.00     0.058 C 
HETATM    3  C   UNK N   1      27.825  42.061  53.963  0.00  0.00     0.067 C 
HETATM    4  C   UNK N   1      26.400  42.321  54.504  0.00  0.00     0.039 C 
HETATM    5  C   UNK N   1      26.376  41.449  55.757  0.00  0.00     0.013 C 
HETATM    6  C   UNK N   1      27.714  41.775  56.455  0.00  0.00    -0.032 C 
HETATM    7  C   UNK N   1      28.226  40.616  57.343  0.00  0.00     0.037 C 
HETATM    8  C   UNK N   1      28.508  39.311  56.659  0.00  0.00    -0.023 C 
HETATM    9  C   UNK N   1      29.413  39.090  55.675  0.00  0.00    -0.085 C 
HETATM   10  C   UNK N   1      30.278  40.137  54.979  0.00  0.00     0.066 C 
HETATM   11  C   UNK N   1      29.593  37.674  55.182  0.00  0.00     0.043 C 
HETATM   12  C   UNK N   1      27.500  42.992  57.406  0.00  0.00     0.016 C 
ENDROOT
BRANCH   1  13
HETATM   13  O   UNK N   1      30.725  41.988  56.463  0.00  0.00    -0.311 OA
BRANCH  13  14
HETATM   14  C   UNK N   1      31.457  43.120  56.638  0.00  0.00     0.293 C 
HETATM   15  O   UNK N   1      32.412  43.360  55.913  0.00  0.00    -0.259 OA
BRANCH  14  16
HETATM   16  C   UNK N   1      31.071  44.076  57.694  0.00  0.00     0.039 A 
HETATM   17  C   UNK N   1      30.981  45.447  57.405  0.00  0.00     0.020 A 
HETATM   18  C   UNK N   1      30.613  46.353  58.400  0.00  0.00     0.038 A 
HETATM   19  C   UNK N   1      30.336  45.908  59.697  0.00  0.00     0.068 A 
HETATM   20  C   UNK N   1      30.431  44.531  59.988  0.00  0.00     0.038 A 
HETATM   21  C   UNK N   1      30.794  43.625  58.992  0.00  0.00     0.020 A 
BRANCH  19  22
HETATM   22  O   UNK N   1      29.983  46.823  60.636  0.00  0.00    -0.356 OA
HETATM   23  C   UNK N   1      29.294  47.990  60.375  0.00  0.00     0.210 C 
ENDBRANCH  19  22
ENDBRANCH  14  16
ENDBRANCH  13  14
ENDBRANCH   1  13
BRANCH   3  24
HETATM   24  O   UNK N   1      27.903  40.725  53.511  0.00  0.00    -0.389 OA
HETATM   25  H   UNK N   1      27.335  40.614  52.707  0.00  0.00     0.210 HD
ENDBRANCH   3  24
BRANCH   3  26
HETATM   26  C   UNK N   1      28.292  43.025  52.804  0.00  0.00     0.012 C 
HETATM   27  C   UNK N   1      29.097  42.277  51.727  0.00  0.00     0.012 C 
HETATM   28  C   UNK N   1      27.149  43.790  52.098  0.00  0.00     0.012 C 
ENDBRANCH   3  26
TORSDOF 6
ENDMDL
MODEL 7
REMARK VINA RESULT:      -5.6     12.850     15.546
REMARK  6 active torsions:
REMARK  status: ('A' for Active; 'I' for Inactive)
REMARK    1  A    between atoms: C_2  and  O_3 
REMARK    2  A    between atoms: C_2  and  C_21 
REMARK    3  A    between atoms: O_3  and  C_4 
REMARK    4  A    between atoms: C_6  and  O_7 
REMARK    5  A    between atoms: C_6  and  C_9 
REMARK    6  A    between atoms: C_24  and  O_25 
ROOT
HETATM    1  C   UNK N   1      31.328  43.492  57.247  0.00  0.00     0.144 C 
HETATM    2  C   UNK N   1      31.009  42.554  58.437  0.00  0.00     0.058 C 
HETATM    3  C   UNK N   1      31.884  42.672  59.725  0.00  0.00     0.067 C 
HETATM    4  C   UNK N   1      31.004  41.908  60.741  0.00  0.00     0.039 C 
HETATM    5  C   UNK N   1      29.620  42.487  60.455  0.00  0.00     0.013 C 
HETATM    6  C   UNK N   1      29.518  42.446  58.915  0.00  0.00    -0.032 C 
HETATM    7  C   UNK N   1      28.558  43.519  58.349  0.00  0.00     0.037 C 
HETATM    8  C   UNK N   1      28.901  44.953  58.629  0.00  0.00    -0.023 C 
HETATM    9  C   UNK N   1      30.023  45.609  58.244  0.00  0.00    -0.085 C 
HETATM   10  C   UNK N   1      31.227  45.011  57.523  0.00  0.00     0.066 C 
HETATM   11  C   UNK N   1      30.129  47.081  58.566  0.00  0.00     0.043 C 
HETATM   12  C   UNK N   1      28.932  41.066  58.488  0.00  0.00     0.016 C 
ENDROOT
BRANCH   1  13
HETATM   13  O   UNK N   1      30.552  43.132  56.164  0.00  0.00    -0.311 OA
BRANCH  13  14
HETATM   14  C   UNK N   1      30.936  42.225  55.227  0.00  0.00     0.293 C 
HETATM   15  O   UNK N   1      32.115  42.102  54.927  0.00  0.00    -0.259 OA
BRANCH  14  16
HETATM   16  C   UNK N   1      29.918  41.365  54.592  0.00  0.00     0.039 A 
HETATM   17  C   UNK N   1      29.692  40.067  55.074  0.00  0.00     0.020 A 
HETATM   18  C   UNK N   1      28.728  39.253  54.477  0.00  0.00     0.038 A 
HETATM   19  C   UNK N   1      27.980  39.719  53.391  0.00  0.00     0.068 A 
HETATM   20  C   UNK N   1      28.211  41.023  52.904  0.00  0.00     0.038 A 
HETATM   21  C   UNK N   1      29.171  41.837  53.503  0.00  0.00     0.020 A 
BRANCH  19  22
HETATM   22  O   UNK N   1      27.054  38.894  52.839  0.00  0.00    -0.356 OA
HETATM   23  C   UNK N   1      25.690  39.094  52.901  0.00  0.00     0.210 C 
ENDBRANCH  19  22
ENDBRANCH  14  16
ENDBRANCH  13  14
ENDBRANCH   1  13
BRANCH   3  24
HETATM   24  O   UNK N   1      31.942  44.031  60.105  0.00  0.00    -0.389 OA
HETATM   25  H   UNK N   1      31.235  44.218  60.774  0.00  0.00     0.210 HD
ENDBRANCH   3  24
BRANCH   3  26
HETATM   26  C   UNK N   1      33.353  42.120  59.557  0.00  0.00     0.012 C 
HETATM   27  C   UNK N   1      34.374  42.967  60.336  0.00  0.00     0.012 C 
HETATM   28  C   UNK N   1      33.542  40.644  59.977  0.00  0.00     0.012 C 
ENDBRANCH   3  26
TORSDOF 6
ENDMDL
MODEL 8
REMARK VINA RESULT:      -5.5      2.333      6.900
REMARK  6 active torsions:
REMARK  status: ('A' for Active; 'I' for Inactive)
REMARK    1  A    between atoms: C_2  and  O_3 
REMARK    2  A    between atoms: C_2  and  C_21 
REMARK    3  A    between atoms: O_3  and  C_4 
REMARK    4  A    between atoms: C_6  and  O_7 
REMARK    5  A    between atoms: C_6  and  C_9 
REMARK    6  A    between atoms: C_24  and  O_25 
ROOT
HETATM    1  C   UNK N   1      42.003  46.646  46.873  0.00  0.00     0.144 C 
HETATM    2  C   UNK N   1      41.040  45.541  46.373  0.00  0.00     0.058 C 
HETATM    3  C   UNK N   1      41.591  44.085  46.245  0.00  0.00     0.067 C 
HETATM    4  C   UNK N   1      40.272  43.287  46.135  0.00  0.00     0.039 C 
HETATM    5  C   UNK N   1      39.435  43.911  47.251  0.00  0.00     0.013 C 
HETATM    6  C   UNK N   1      39.628  45.428  47.047  0.00  0.00    -0.032 C 
HETATM    7  C   UNK N   1      39.449  46.237  48.354  0.00  0.00     0.037 C 
HETATM    8  C   UNK N   1      40.388  45.923  49.481  0.00  0.00    -0.023 C 
HETATM    9  C   UNK N   1      41.738  46.048  49.471  0.00  0.00    -0.085 C 
HETATM   10  C   UNK N   1      42.608  46.444  48.283  0.00  0.00     0.066 C 
HETATM   11  C   UNK N   1      42.486  45.751  50.748  0.00  0.00     0.043 C 
HETATM   12  C   UNK N   1      38.537  45.945  46.061  0.00  0.00     0.016 C 
ENDROOT
BRANCH   1  13
HETATM   13  O   UNK N   1      41.379  47.872  46.772  0.00  0.00    -0.311 OA
BRANCH  13  14
HETATM   14  C   UNK N   1      41.595  48.751  45.758  0.00  0.00     0.293 C 
HETATM   15  O   UNK N   1      42.722  49.167  45.526  0.00  0.00    -0.259 OA
BRANCH  14  16
HETATM   16  C   UNK N   1      40.462  49.179  44.915  0.00  0.00     0.039 A 
HETATM   17  C   UNK N   1      39.308  48.385  44.829  0.00  0.00     0.020 A 
HETATM   18  C   UNK N   1      38.234  48.789  44.036  0.00  0.00     0.038 A 
HETATM   19  C   UNK N   1      38.296  49.986  43.314  0.00  0.00     0.068 A 
HETATM   20  C   UNK N   1      39.457  50.782  43.398  0.00  0.00     0.038 A 
HETATM   21  C   UNK N   1      40.529  50.380  44.194  0.00  0.00     0.020 A 
BRANCH  19  22
HETATM   22  O   UNK N   1      37.229  50.341  42.553  0.00  0.00    -0.356 OA
HETATM   23  C   UNK N   1      35.912  50.105  42.889  0.00  0.00     0.210 C 
ENDBRANCH  19  22
ENDBRANCH  14  16
ENDBRANCH  13  14
ENDBRANCH   1  13
BRANCH   3  24
HETATM   24  O   UNK N   1      42.233  43.740  47.455  0.00  0.00    -0.389 OA
HETATM   25  H   UNK N   1      41.793  44.210  48.208  0.00  0.00     0.210 HD
ENDBRANCH   3  24
BRANCH   3  26
HETATM   26  C   UNK N   1      42.602  43.883  45.049  0.00  0.00     0.012 C 
HETATM   27  C   UNK N   1      43.054  42.418  44.924  0.00  0.00     0.012 C 
HETATM   28  C   UNK N   1      42.071  44.336  43.669  0.00  0.00     0.012 C 
ENDBRANCH   3  26
TORSDOF 6
ENDMDL
MODEL 9
REMARK VINA RESULT:      -5.5     12.804     15.932
REMARK  6 active torsions:
REMARK  status: ('A' for Active; 'I' for Inactive)
REMARK    1  A    between atoms: C_2  and  O_3 
REMARK    2  A    between atoms: C_2  and  C_21 
REMARK    3  A    between atoms: O_3  and  C_4 
REMARK    4  A    between atoms: C_6  and  O_7 
REMARK    5  A    between atoms: C_6  and  C_9 
REMARK    6  A    between atoms: C_24  and  O_25 
ROOT
HETATM    1  C   UNK N   1      30.808  42.420  57.283  0.00  0.00     0.144 C 
HETATM    2  C   UNK N   1      30.787  41.645  58.622  0.00  0.00     0.058 C 
HETATM    3  C   UNK N   1      31.587  42.234  59.828  0.00  0.00     0.067 C 
HETATM    4  C   UNK N   1      30.979  41.428  60.998  0.00  0.00     0.039 C 
HETATM    5  C   UNK N   1      29.485  41.512  60.694  0.00  0.00     0.013 C 
HETATM    6  C   UNK N   1      29.399  41.183  59.189  0.00  0.00    -0.032 C 
HETATM    7  C   UNK N   1      28.160  41.811  58.507  0.00  0.00     0.037 C 
HETATM    8  C   UNK N   1      28.056  43.308  58.534  0.00  0.00    -0.023 C 
HETATM    9  C   UNK N   1      28.927  44.192  57.991  0.00  0.00    -0.085 C 
HETATM   10  C   UNK N   1      30.255  43.865  57.315  0.00  0.00     0.066 C 
HETATM   11  C   UNK N   1      28.585  45.661  58.065  0.00  0.00     0.043 C 
HETATM   12  C   UNK N   1      29.255  39.640  59.020  0.00  0.00     0.016 C 
ENDROOT
BRANCH   1  13
HETATM   13  O   UNK N   1      30.176  41.669  56.313  0.00  0.00    -0.311 OA
BRANCH  13  14
HETATM   14  C   UNK N   1      30.419  41.794  54.981  0.00  0.00     0.293 C 
HETATM   15  O   UNK N   1      31.534  41.573  54.529  0.00  0.00    -0.259 OA
BRANCH  14  16
HETATM   16  C   UNK N   1      29.316  42.170  54.076  0.00  0.00     0.039 A 
HETATM   17  C   UNK N   1      28.050  42.481  54.598  0.00  0.00     0.020 A 
HETATM   18  C   UNK N   1      27.006  42.840  53.744  0.00  0.00     0.038 A 
HETATM   19  C   UNK N   1      27.207  42.890  52.361  0.00  0.00     0.068 A 
HETATM   20  C   UNK N   1      28.477  42.574  51.836  0.00  0.00     0.038 A 
HETATM   21  C   UNK N   1      29.522  42.219  52.690  0.00  0.00     0.020 A 
BRANCH  19  22
HETATM   22  O   UNK N   1      26.164  43.243  51.566  0.00  0.00    -0.356 OA
HETATM   23  C   UNK N   1      25.025  43.887  52.006  0.00  0.00     0.210 C 
ENDBRANCH  19  22
ENDBRANCH  14  16
ENDBRANCH  13  14
ENDBRANCH   1  13
BRANCH   3  24
HETATM   24  O   UNK N   1      31.234  43.593  59.981  0.00  0.00    -0.389 OA
HETATM   25  H   UNK N   1      31.924  44.057  60.520  0.00  0.00     0.210 HD
ENDBRANCH   3  24
BRANCH   3  26
HETATM   26  C   UNK N   1      33.154  42.124  59.676  0.00  0.00     0.012 C 
HETATM   27  C   UNK N   1      33.891  43.064  60.644  0.00  0.00     0.012 C 
HETATM   28  C   UNK N   1      33.724  40.699  59.871  0.00  0.00     0.012 C 
ENDBRANCH   3  26
TORSDOF 6
ENDMDL
