MODEL 1
REMARK VINA RESULT:      -6.2      0.000      0.000
REMARK  6 active torsions:
REMARK  status: ('A' for Active; 'I' for Inactive)
REMARK    1  A    between atoms: C_2  and  O_3 
REMARK    2  A    between atoms: C_2  and  C_21 
REMARK    3  A    between atoms: O_3  and  C_4 
REMARK    4  A    between atoms: C_6  and  O_7 
REMARK    5  A    between atoms: C_6  and  C_9 
REMARK    6  A    between atoms: C_24  and  O_25 
ROOT
HETATM    1  C   UNK N   1      31.198  52.022  42.265  0.00  0.00     0.144 C 
HETATM    2  C   UNK N   1      31.911  53.263  42.935  0.00  0.00     0.058 C 
HETATM    3  C   UNK N   1      31.113  54.640  42.936  0.00  0.00     0.067 C 
HETATM    4  C   UNK N   1      30.319  54.492  44.241  0.00  0.00     0.039 C 
HETATM    5  C   UNK N   1      31.410  54.112  45.222  0.00  0.00     0.013 C 
HETATM    6  C   UNK N   1      32.226  53.024  44.481  0.00  0.00    -0.032 C 
HETATM    7  C   UNK N   1      31.747  51.654  45.059  0.00  0.00     0.037 C 
HETATM    8  C   UNK N   1      32.550  50.469  44.617  0.00  0.00    -0.023 C 
HETATM    9  C   UNK N   1      32.715  50.088  43.342  0.00  0.00    -0.085 C 
HETATM   10  C   UNK N   1      32.130  50.793  42.150  0.00  0.00     0.066 C 
HETATM   11  C   UNK N   1      33.560  48.873  43.039  0.00  0.00     0.043 C 
HETATM   12  C   UNK N   1      33.729  53.219  44.783  0.00  0.00     0.016 C 
ENDROOT
BRANCH   1  13
HETATM   13  O   UNK N   1      30.929  52.272  40.938  0.00  0.00    -0.311 OA
BRANCH  13  14
HETATM   14  C   UNK N   1      29.841  51.866  40.232  0.00  0.00     0.293 C 
HETATM   15  O   UNK N   1      29.373  50.747  40.382  0.00  0.00    -0.259 OA
BRANCH  14  16
HETATM   16  C   UNK N   1      29.264  52.808  39.248  0.00  0.00     0.039 A 
HETATM   17  C   UNK N   1      27.877  53.023  39.165  0.00  0.00     0.020 A 
HETATM   18  C   UNK N   1      27.364  53.922  38.222  0.00  0.00     0.037 A 
HETATM   19  C   UNK N   1      28.228  54.600  37.348  0.00  0.00     0.065 A 
HETATM   20  C   UNK N   1      29.604  54.375  37.419  0.00  0.00     0.037 A 
HETATM   21  C   UNK N   1      30.120  53.490  38.365  0.00  0.00     0.020 A 
BRANCH  19  22
HETATM   22  O   UNK N   1      27.746  55.469  36.437  0.00  0.00    -0.361 OA
HETATM   23  H   UNK N   1      28.317  56.117  36.001  0.00  0.00     0.217 HD
ENDBRANCH  19  22
ENDBRANCH  14  16
ENDBRANCH  13  14
ENDBRANCH   1  13
BRANCH   3  24
HETATM   24  O   UNK N   1      32.017  55.715  43.118  0.00  0.00    -0.389 OA
HETATM   25  H   UNK N   1      32.207  56.123  42.234  0.00  0.00     0.210 HD
ENDBRANCH   3  24
BRANCH   3  26
HETATM   26  C   UNK N   1      30.196  54.997  41.711  0.00  0.00     0.012 C 
HETATM   27  C   UNK N   1      28.740  55.291  42.136  0.00  0.00     0.012 C 
HETATM   28  C   UNK N   1      30.698  56.229  40.924  0.00  0.00     0.012 C 
ENDBRANCH   3  26
TORSDOF 6
ENDMDL
MODEL 2
REMARK VINA RESULT:      -5.8      1.989      4.588
REMARK  6 active torsions:
REMARK  status: ('A' for Active; 'I' for Inactive)
REMARK    1  A    between atoms: C_2  and  O_3 
REMARK    2  A    between atoms: C_2  and  C_21 
REMARK    3  A    between atoms: O_3  and  C_4 
REMARK    4  A    between atoms: C_6  and  O_7 
REMARK    5  A    between atoms: C_6  and  C_9 
REMARK    6  A    between atoms: C_24  and  O_25 
ROOT
HETATM    1  C   UNK N   1      31.503  52.995  42.005  0.00  0.00     0.144 C 
HETATM    2  C   UNK N   1      31.581  52.466  43.492  0.00  0.00     0.058 C 
HETATM    3  C   UNK N   1      32.447  51.155  43.747  0.00  0.00     0.067 C 
HETATM    4  C   UNK N   1      33.827  51.785  43.983  0.00  0.00     0.039 C 
HETATM    5  C   UNK N   1      33.508  52.839  45.024  0.00  0.00     0.013 C 
HETATM    6  C   UNK N   1      32.231  53.531  44.486  0.00  0.00    -0.032 C 
HETATM    7  C   UNK N   1      32.706  54.863  43.824  0.00  0.00     0.037 C 
HETATM    8  C   UNK N   1      31.602  55.787  43.408  0.00  0.00    -0.023 C 
HETATM    9  C   UNK N   1      30.633  55.478  42.534  0.00  0.00    -0.085 C 
HETATM   10  C   UNK N   1      30.491  54.153  41.839  0.00  0.00     0.066 C 
HETATM   11  C   UNK N   1      29.576  56.508  42.211  0.00  0.00     0.043 C 
HETATM   12  C   UNK N   1      31.284  53.844  45.667  0.00  0.00     0.016 C 
ENDROOT
BRANCH   1  13
HETATM   13  O   UNK N   1      30.952  52.045  41.176  0.00  0.00    -0.311 OA
BRANCH  13  14
HETATM   14  C   UNK N   1      30.083  52.254  40.152  0.00  0.00     0.293 C 
HETATM   15  O   UNK N   1      30.449  52.784  39.114  0.00  0.00    -0.259 OA
BRANCH  14  16
HETATM   16  C   UNK N   1      28.672  51.857  40.350  0.00  0.00     0.039 A 
HETATM   17  C   UNK N   1      27.640  52.811  40.379  0.00  0.00     0.020 A 
HETATM   18  C   UNK N   1      26.315  52.401  40.568  0.00  0.00     0.037 A 
HETATM   19  C   UNK N   1      26.013  51.042  40.745  0.00  0.00     0.065 A 
HETATM   20  C   UNK N   1      27.039  50.096  40.733  0.00  0.00     0.037 A 
HETATM   21  C   UNK N   1      28.359  50.499  40.532  0.00  0.00     0.020 A 
BRANCH  19  22
HETATM   22  O   UNK N   1      24.740  50.635  40.926  0.00  0.00    -0.361 OA
HETATM   23  H   UNK N   1      23.988  51.195  40.688  0.00  0.00     0.217 HD
ENDBRANCH  19  22
ENDBRANCH  14  16
ENDBRANCH  13  14
ENDBRANCH   1  13
BRANCH   3  24
HETATM   24  O   UNK N   1      32.050  50.550  44.964  0.00  0.00    -0.389 OA
HETATM   25  H   UNK N   1      31.933  51.259  45.647  0.00  0.00     0.210 HD
ENDBRANCH   3  24
BRANCH   3  26
HETATM   26  C   UNK N   1      32.479  50.030  42.650  0.00  0.00     0.012 C 
HETATM   27  C   UNK N   1      33.609  49.005  42.896  0.00  0.00     0.012 C 
HETATM   28  C   UNK N   1      31.156  49.237  42.564  0.00  0.00     0.012 C 
ENDBRANCH   3  26
TORSDOF 6
ENDMDL
MODEL 3
REMARK VINA RESULT:      -5.5     17.237     20.173
REMARK  6 active torsions:
REMARK  status: ('A' for Active; 'I' for Inactive)
REMARK    1  A    between atoms: C_2  and  O_3 
REMARK    2  A    between atoms: C_2  and  C_21 
REMARK    3  A    between atoms: O_3  and  C_4 
REMARK    4  A    between atoms: C_6  and  O_7 
REMARK    5  A    between atoms: C_6  and  C_9 
REMARK    6  A    between atoms: C_24  and  O_25 
ROOT
HETATM    1  C   UNK N   1      48.507  57.678  40.693  0.00  0.00     0.144 C 
HETATM    2  C   UNK N   1      49.390  57.237  39.460  0.00  0.00     0.058 C 
HETATM    3  C   UNK N   1      50.582  56.223  39.750  0.00  0.00     0.067 C 
HETATM    4  C   UNK N   1      49.843  54.886  39.597  0.00  0.00     0.039 C 
HETATM    5  C   UNK N   1      49.155  55.068  38.259  0.00  0.00     0.013 C 
HETATM    6  C   UNK N   1      48.540  56.487  38.336  0.00  0.00    -0.032 C 
HETATM    7  C   UNK N   1      47.027  56.286  38.665  0.00  0.00     0.037 C 
HETATM    8  C   UNK N   1      46.196  57.531  38.594  0.00  0.00    -0.023 C 
HETATM    9  C   UNK N   1      46.402  58.633  39.329  0.00  0.00    -0.085 C 
HETATM   10  C   UNK N   1      47.506  58.801  40.336  0.00  0.00     0.066 C 
HETATM   11  C   UNK N   1      45.489  59.821  39.148  0.00  0.00     0.043 C 
HETATM   12  C   UNK N   1      48.687  57.184  36.964  0.00  0.00     0.016 C 
ENDROOT
BRANCH   1  13
HETATM   13  O   UNK N   1      49.277  58.306  41.646  0.00  0.00    -0.311 OA
BRANCH  13  14
HETATM   14  C   UNK N   1      49.026  58.388  42.979  0.00  0.00     0.293 C 
HETATM   15  O   UNK N   1      48.501  59.380  43.461  0.00  0.00    -0.259 OA
BRANCH  14  16
HETATM   16  C   UNK N   1      49.444  57.255  43.833  0.00  0.00     0.039 A 
HETATM   17  C   UNK N   1      48.730  56.044  43.845  0.00  0.00     0.020 A 
HETATM   18  C   UNK N   1      49.154  54.991  44.665  0.00  0.00     0.037 A 
HETATM   19  C   UNK N   1      50.281  55.144  45.488  0.00  0.00     0.065 A 
HETATM   20  C   UNK N   1      50.980  56.352  45.489  0.00  0.00     0.037 A 
HETATM   21  C   UNK N   1      50.569  57.399  44.664  0.00  0.00     0.020 A 
BRANCH  19  22
HETATM   22  O   UNK N   1      50.699  54.137  46.281  0.00  0.00    -0.361 OA
HETATM   23  H   UNK N   1      51.186  54.303  47.100  0.00  0.00     0.217 HD
ENDBRANCH  19  22
ENDBRANCH  14  16
ENDBRANCH  13  14
ENDBRANCH   1  13
BRANCH   3  24
HETATM   24  O   UNK N   1      51.535  56.295  38.706  0.00  0.00    -0.389 OA
HETATM   25  H   UNK N   1      51.827  55.375  38.478  0.00  0.00     0.210 HD
ENDBRANCH   3  24
BRANCH   3  26
HETATM   26  C   UNK N   1      51.364  56.326  41.110  0.00  0.00     0.012 C 
HETATM   27  C   UNK N   1      51.652  54.938  41.725  0.00  0.00     0.012 C 
HETATM   28  C   UNK N   1      52.720  57.052  40.969  0.00  0.00     0.012 C 
ENDBRANCH   3  26
TORSDOF 6
ENDMDL
MODEL 4
REMARK VINA RESULT:      -5.5     13.227     15.834
REMARK  6 active torsions:
REMARK  status: ('A' for Active; 'I' for Inactive)
REMARK    1  A    between atoms: C_2  and  O_3 
REMARK    2  A    between atoms: C_2  and  C_21 
REMARK    3  A    between atoms: O_3  and  C_4 
REMARK    4  A    between atoms: C_6  and  O_7 
REMARK    5  A    between atoms: C_6  and  C_9 
REMARK    6  A    between atoms: C_24  and  O_25 
ROOT
HETATM    1  C   UNK N   1      41.519  45.956  46.928  0.00  0.00     0.144 C 
HETATM    2  C   UNK N   1      41.284  46.370  48.434  0.00  0.00     0.058 C 
HETATM    3  C   UNK N   1      41.152  45.191  49.495  0.00  0.00     0.067 C 
HETATM    4  C   UNK N   1      42.629  44.992  49.864  0.00  0.00     0.039 C 
HETATM    5  C   UNK N   1      43.059  46.411  50.180  0.00  0.00     0.013 C 
HETATM    6  C   UNK N   1      42.477  47.254  49.018  0.00  0.00    -0.032 C 
HETATM    7  C   UNK N   1      43.663  47.511  48.034  0.00  0.00     0.037 C 
HETATM    8  C   UNK N   1      43.365  48.478  46.929  0.00  0.00    -0.023 C 
HETATM    9  C   UNK N   1      42.395  48.323  46.017  0.00  0.00    -0.085 C 
HETATM   10  C   UNK N   1      41.443  47.160  45.961  0.00  0.00     0.066 C 
HETATM   11  C   UNK N   1      42.201  49.384  44.959  0.00  0.00     0.043 C 
HETATM   12  C   UNK N   1      41.959  48.600  49.573  0.00  0.00     0.016 C 
ENDROOT
BRANCH   1  13
HETATM   13  O   UNK N   1      40.478  45.183  46.465  0.00  0.00    -0.311 OA
BRANCH  13  14
HETATM   14  C   UNK N   1      40.555  44.131  45.608  0.00  0.00     0.293 C 
HETATM   15  O   UNK N   1      39.583  43.770  44.963  0.00  0.00    -0.259 OA
BRANCH  14  16
HETATM   16  C   UNK N   1      41.844  43.411  45.512  0.00  0.00     0.039 A 
HETATM   17  C   UNK N   1      42.726  43.628  44.439  0.00  0.00     0.020 A 
HETATM   18  C   UNK N   1      43.939  42.931  44.378  0.00  0.00     0.037 A 
HETATM   19  C   UNK N   1      44.271  42.002  45.377  0.00  0.00     0.065 A 
HETATM   20  C   UNK N   1      43.388  41.774  46.434  0.00  0.00     0.037 A 
HETATM   21  C   UNK N   1      42.186  42.477  46.505  0.00  0.00     0.020 A 
BRANCH  19  22
HETATM   22  O   UNK N   1      45.436  41.325  45.330  0.00  0.00    -0.361 OA
HETATM   23  H   UNK N   1      45.807  40.896  46.114  0.00  0.00     0.217 HD
ENDBRANCH  19  22
ENDBRANCH  14  16
ENDBRANCH  13  14
ENDBRANCH   1  13
BRANCH   3  24
HETATM   24  O   UNK N   1      40.493  45.665  50.655  0.00  0.00    -0.389 OA
HETATM   25  H   UNK N   1      40.602  46.650  50.703  0.00  0.00     0.210 HD
ENDBRANCH   3  24
BRANCH   3  26
HETATM   26  C   UNK N   1      40.452  43.850  49.070  0.00  0.00     0.012 C 
HETATM   27  C   UNK N   1      40.699  42.713  50.087  0.00  0.00     0.012 C 
HETATM   28  C   UNK N   1      38.922  43.995  48.913  0.00  0.00     0.012 C 
ENDBRANCH   3  26
TORSDOF 6
ENDMDL
MODEL 5
REMARK VINA RESULT:      -5.2      2.140      6.448
REMARK  6 active torsions:
REMARK  status: ('A' for Active; 'I' for Inactive)
REMARK    1  A    between atoms: C_2  and  O_3 
REMARK    2  A    between atoms: C_2  and  C_21 
REMARK    3  A    between atoms: O_3  and  C_4 
REMARK    4  A    between atoms: C_6  and  O_7 
REMARK    5  A    between atoms: C_6  and  C_9 
REMARK    6  A    between atoms: C_24  and  O_25 
ROOT
HETATM    1  C   UNK N   1      28.360  53.075  39.967  0.00  0.00     0.144 C 
HETATM    2  C   UNK N   1      27.720  54.343  40.658  0.00  0.00     0.058 C 
HETATM    3  C   UNK N   1      28.709  55.528  41.050  0.00  0.00     0.067 C 
HETATM    4  C   UNK N   1      28.697  56.333  39.743  0.00  0.00     0.039 C 
HETATM    5  C   UNK N   1      27.210  56.482  39.488  0.00  0.00     0.013 C 
HETATM    6  C   UNK N   1      26.638  55.063  39.732  0.00  0.00    -0.032 C 
HETATM    7  C   UNK N   1      26.437  54.428  38.320  0.00  0.00     0.037 C 
HETATM    8  C   UNK N   1      25.706  53.121  38.316  0.00  0.00    -0.023 C 
HETATM    9  C   UNK N   1      26.107  52.016  38.963  0.00  0.00    -0.085 C 
HETATM   10  C   UNK N   1      27.350  51.915  39.803  0.00  0.00     0.066 C 
HETATM   11  C   UNK N   1      25.265  50.765  38.877  0.00  0.00     0.043 C 
HETATM   12  C   UNK N   1      25.275  55.179  40.451  0.00  0.00     0.016 C 
ENDROOT
BRANCH   1  13
HETATM   13  O   UNK N   1      29.297  52.491  40.789  0.00  0.00    -0.311 OA
BRANCH  13  14
HETATM   14  C   UNK N   1      30.571  52.145  40.463  0.00  0.00     0.293 C 
HETATM   15  O   UNK N   1      31.086  52.541  39.428  0.00  0.00    -0.259 OA
BRANCH  14  16
HETATM   16  C   UNK N   1      31.298  51.241  41.380  0.00  0.00     0.039 A 
HETATM   17  C   UNK N   1      32.136  51.742  42.391  0.00  0.00     0.020 A 
HETATM   18  C   UNK N   1      32.809  50.858  43.243  0.00  0.00     0.037 A 
HETATM   19  C   UNK N   1      32.664  49.472  43.082  0.00  0.00     0.065 A 
HETATM   20  C   UNK N   1      31.845  48.973  42.067  0.00  0.00     0.037 A 
HETATM   21  C   UNK N   1      31.162  49.850  41.225  0.00  0.00     0.020 A 
BRANCH  19  22
HETATM   22  O   UNK N   1      33.307  48.610  43.897  0.00  0.00    -0.361 OA
HETATM   23  H   UNK N   1      33.246  47.653  43.774  0.00  0.00     0.217 HD
ENDBRANCH  19  22
ENDBRANCH  14  16
ENDBRANCH  13  14
ENDBRANCH   1  13
BRANCH   3  24
HETATM   24  O   UNK N   1      28.112  56.339  42.045  0.00  0.00    -0.389 OA
HETATM   25  H   UNK N   1      28.122  55.846  42.905  0.00  0.00     0.210 HD
ENDBRANCH   3  24
BRANCH   3  26
HETATM   26  C   UNK N   1      30.165  55.185  41.532  0.00  0.00     0.012 C 
HETATM   27  C   UNK N   1      31.243  55.918  40.703  0.00  0.00     0.012 C 
HETATM   28  C   UNK N   1      30.407  55.547  43.015  0.00  0.00     0.012 C 
ENDBRANCH   3  26
TORSDOF 6
ENDMDL
MODEL 6
REMARK VINA RESULT:      -5.1     18.018     21.260
REMARK  6 active torsions:
REMARK  status: ('A' for Active; 'I' for Inactive)
REMARK    1  A    between atoms: C_2  and  O_3 
REMARK    2  A    between atoms: C_2  and  C_21 
REMARK    3  A    between atoms: O_3  and  C_4 
REMARK    4  A    between atoms: C_6  and  O_7 
REMARK    5  A    between atoms: C_6  and  C_9 
REMARK    6  A    between atoms: C_24  and  O_25 
ROOT
HETATM    1  C   UNK N   1      29.679  40.088  57.990  0.00  0.00     0.144 C 
HETATM    2  C   UNK N   1      28.997  40.906  56.823  0.00  0.00     0.058 C 
HETATM    3  C   UNK N   1      29.597  42.346  56.504  0.00  0.00     0.067 C 
HETATM    4  C   UNK N   1      30.687  41.965  55.492  0.00  0.00     0.039 C 
HETATM    5  C   UNK N   1      29.912  41.104  54.515  0.00  0.00     0.013 C 
HETATM    6  C   UNK N   1      29.084  40.155  55.418  0.00  0.00    -0.032 C 
HETATM    7  C   UNK N   1      29.850  38.794  55.433  0.00  0.00     0.037 C 
HETATM    8  C   UNK N   1      29.117  37.667  56.094  0.00  0.00    -0.023 C 
HETATM    9  C   UNK N   1      28.706  37.664  57.370  0.00  0.00    -0.085 C 
HETATM   10  C   UNK N   1      28.905  38.796  58.341  0.00  0.00     0.066 C 
HETATM   11  C   UNK N   1      27.969  36.459  57.905  0.00  0.00     0.043 C 
HETATM   12  C   UNK N   1      27.681  39.957  54.800  0.00  0.00     0.016 C 
ENDROOT
BRANCH   1  13
HETATM   13  O   UNK N   1      29.597  40.774  59.181  0.00  0.00    -0.311 OA
BRANCH  13  14
HETATM   14  C   UNK N   1      30.363  40.588  60.288  0.00  0.00     0.293 C 
HETATM   15  O   UNK N   1      30.015  39.822  61.174  0.00  0.00    -0.259 OA
BRANCH  14  16
HETATM   16  C   UNK N   1      31.611  41.374  60.404  0.00  0.00     0.039 A 
HETATM   17  C   UNK N   1      31.641  42.605  61.083  0.00  0.00     0.020 A 
HETATM   18  C   UNK N   1      32.840  43.322  61.175  0.00  0.00     0.037 A 
HETATM   19  C   UNK N   1      34.010  42.826  60.580  0.00  0.00     0.065 A 
HETATM   20  C   UNK N   1      33.977  41.611  59.891  0.00  0.00     0.037 A 
HETATM   21  C   UNK N   1      32.788  40.887  59.809  0.00  0.00     0.020 A 
BRANCH  19  22
HETATM   22  O   UNK N   1      35.170  43.507  60.663  0.00  0.00    -0.361 OA
HETATM   23  H   UNK N   1      36.017  43.102  60.426  0.00  0.00     0.217 HD
ENDBRANCH  19  22
ENDBRANCH  14  16
ENDBRANCH  13  14
ENDBRANCH   1  13
BRANCH   3  24
HETATM   24  O   UNK N   1      28.636  43.120  55.810  0.00  0.00    -0.389 OA
HETATM   25  H   UNK N   1      29.109  43.728  55.186  0.00  0.00     0.210 HD
ENDBRANCH   3  24
BRANCH   3  26
HETATM   26  C   UNK N   1      30.150  43.226  57.682  0.00  0.00     0.012 C 
HETATM   27  C   UNK N   1      31.605  43.683  57.438  0.00  0.00     0.012 C 
HETATM   28  C   UNK N   1      29.308  44.498  57.928  0.00  0.00     0.012 C 
ENDBRANCH   3  26
TORSDOF 6
ENDMDL
MODEL 7
REMARK VINA RESULT:      -5.0     16.079     19.295
REMARK  6 active torsions:
REMARK  status: ('A' for Active; 'I' for Inactive)
REMARK    1  A    between atoms: C_2  and  O_3 
REMARK    2  A    between atoms: C_2  and  C_21 
REMARK    3  A    between atoms: O_3  and  C_4 
REMARK    4  A    between atoms: C_6  and  O_7 
REMARK    5  A    between atoms: C_6  and  C_9 
REMARK    6  A    between atoms: C_24  and  O_25 
ROOT
HETATM    1  C   UNK N   1      30.319  41.932  57.124  0.00  0.00     0.144 C 
HETATM    2  C   UNK N   1      29.498  41.460  58.389  0.00  0.00     0.058 C 
HETATM    3  C   UNK N   1      29.248  39.896  58.546  0.00  0.00     0.067 C 
HETATM    4  C   UNK N   1      30.514  39.497  59.318  0.00  0.00     0.039 C 
HETATM    5  C   UNK N   1      30.511  40.502  60.452  0.00  0.00     0.013 C 
HETATM    6  C   UNK N   1      30.210  41.855  59.761  0.00  0.00    -0.032 C 
HETATM    7  C   UNK N   1      31.584  42.583  59.617  0.00  0.00     0.037 C 
HETATM    8  C   UNK N   1      31.499  44.003  59.147  0.00  0.00    -0.023 C 
HETATM    9  C   UNK N   1      30.957  44.393  57.984  0.00  0.00    -0.085 C 
HETATM   10  C   UNK N   1      30.340  43.470  56.969  0.00  0.00     0.066 C 
HETATM   11  C   UNK N   1      30.931  45.863  57.639  0.00  0.00     0.043 C 
HETATM   12  C   UNK N   1      29.270  42.690  60.661  0.00  0.00     0.016 C 
ENDROOT
BRANCH   1  13
HETATM   13  O   UNK N   1      29.682  41.560  55.962  0.00  0.00    -0.311 OA
BRANCH  13  14
HETATM   14  C   UNK N   1      30.219  41.504  54.715  0.00  0.00     0.293 C 
HETATM   15  O   UNK N   1      31.429  41.498  54.549  0.00  0.00    -0.259 OA
BRANCH  14  16
HETATM   16  C   UNK N   1      29.292  41.490  53.562  0.00  0.00     0.039 A 
HETATM   17  C   UNK N   1      28.158  40.659  53.544  0.00  0.00     0.020 A 
HETATM   18  C   UNK N   1      27.300  40.671  52.437  0.00  0.00     0.037 A 
HETATM   19  C   UNK N   1      27.575  41.498  51.338  0.00  0.00     0.065 A 
HETATM   20  C   UNK N   1      28.710  42.312  51.348  0.00  0.00     0.037 A 
HETATM   21  C   UNK N   1      29.559  42.313  52.454  0.00  0.00     0.020 A 
BRANCH  19  22
HETATM   22  O   UNK N   1      26.756  41.519  50.267  0.00  0.00    -0.361 OA
HETATM   23  H   UNK N   1      25.794  41.553  50.363  0.00  0.00     0.217 HD
ENDBRANCH  19  22
ENDBRANCH  14  16
ENDBRANCH  13  14
ENDBRANCH   1  13
BRANCH   3  24
HETATM   24  O   UNK N   1      28.146  39.673  59.407  0.00  0.00    -0.389 OA
HETATM   25  H   UNK N   1      27.321  39.617  58.860  0.00  0.00     0.210 HD
ENDBRANCH   3  24
BRANCH   3  26
HETATM   26  C   UNK N   1      29.026  39.021  57.260  0.00  0.00     0.012 C 
HETATM   27  C   UNK N   1      29.627  37.605  57.405  0.00  0.00     0.012 C 
HETATM   28  C   UNK N   1      27.533  38.847  56.903  0.00  0.00     0.012 C 
ENDBRANCH   3  26
TORSDOF 6
ENDMDL
MODEL 8
REMARK VINA RESULT:      -5.0     17.537     21.231
REMARK  6 active torsions:
REMARK  status: ('A' for Active; 'I' for Inactive)
REMARK    1  A    between atoms: C_2  and  O_3 
REMARK    2  A    between atoms: C_2  and  C_21 
REMARK    3  A    between atoms: O_3  and  C_4 
REMARK    4  A    between atoms: C_6  and  O_7 
REMARK    5  A    between atoms: C_6  and  C_9 
REMARK    6  A    between atoms: C_24  and  O_25 
ROOT
HETATM    1  C   UNK N   1      29.209  39.728  57.783  0.00  0.00     0.144 C 
HETATM    2  C   UNK N   1      28.538  39.201  56.453  0.00  0.00     0.058 C 
HETATM    3  C   UNK N   1      28.976  39.906  55.095  0.00  0.00     0.067 C 
HETATM    4  C   UNK N   1      30.194  39.048  54.726  0.00  0.00     0.039 C 
HETATM    5  C   UNK N   1      29.629  37.647  54.842  0.00  0.00     0.013 C 
HETATM    6  C   UNK N   1      28.849  37.660  56.181  0.00  0.00    -0.032 C 
HETATM    7  C   UNK N   1      29.778  36.970  57.229  0.00  0.00     0.037 C 
HETATM    8  C   UNK N   1      29.138  36.700  58.557  0.00  0.00    -0.023 C 
HETATM    9  C   UNK N   1      28.615  37.639  59.359  0.00  0.00    -0.085 C 
HETATM   10  C   UNK N   1      28.577  39.110  59.053  0.00  0.00     0.066 C 
HETATM   11  C   UNK N   1      27.992  37.224  60.671  0.00  0.00     0.043 C 
HETATM   12  C   UNK N   1      27.546  36.845  56.022  0.00  0.00     0.016 C 
ENDROOT
BRANCH   1  13
HETATM   13  O   UNK N   1      28.931  41.063  57.975  0.00  0.00    -0.311 OA
BRANCH  13  14
HETATM   14  C   UNK N   1      29.411  41.867  58.960  0.00  0.00     0.293 C 
HETATM   15  O   UNK N   1      28.663  42.360  59.791  0.00  0.00    -0.259 OA
BRANCH  14  16
HETATM   16  C   UNK N   1      30.861  42.157  58.971  0.00  0.00     0.039 A 
HETATM   17  C   UNK N   1      31.726  41.538  59.890  0.00  0.00     0.020 A 
HETATM   18  C   UNK N   1      33.094  41.835  59.872  0.00  0.00     0.037 A 
HETATM   19  C   UNK N   1      33.605  42.762  58.950  0.00  0.00     0.065 A 
HETATM   20  C   UNK N   1      32.744  43.390  58.048  0.00  0.00     0.037 A 
HETATM   21  C   UNK N   1      31.383  43.087  58.054  0.00  0.00     0.020 A 
BRANCH  19  22
HETATM   22  O   UNK N   1      34.920  43.056  58.922  0.00  0.00    -0.361 OA
HETATM   23  H   UNK N   1      35.556  42.598  59.490  0.00  0.00     0.217 HD
ENDBRANCH  19  22
ENDBRANCH  14  16
ENDBRANCH  13  14
ENDBRANCH   1  13
BRANCH   3  24
HETATM   24  O   UNK N   1      27.992  39.682  54.102  0.00  0.00    -0.389 OA
HETATM   25  H   UNK N   1      27.281  40.366  54.199  0.00  0.00     0.210 HD
ENDBRANCH   3  24
BRANCH   3  26
HETATM   26  C   UNK N   1      29.301  41.444  55.098  0.00  0.00     0.012 C 
HETATM   27  C   UNK N   1      30.753  41.735  54.655  0.00  0.00     0.012 C 
HETATM   28  C   UNK N   1      28.371  42.256  54.170  0.00  0.00     0.012 C 
ENDBRANCH   3  26
TORSDOF 6
ENDMDL
MODEL 9
REMARK VINA RESULT:      -4.9     19.834     22.421
REMARK  6 active torsions:
REMARK  status: ('A' for Active; 'I' for Inactive)
REMARK    1  A    between atoms: C_2  and  O_3 
REMARK    2  A    between atoms: C_2  and  C_21 
REMARK    3  A    between atoms: O_3  and  C_4 
REMARK    4  A    between atoms: C_6  and  O_7 
REMARK    5  A    between atoms: C_6  and  C_9 
REMARK    6  A    between atoms: C_24  and  O_25 
ROOT
HETATM    1  C   UNK N   1      32.257  44.196  61.580  0.00  0.00     0.144 C 
HETATM    2  C   UNK N   1      30.750  44.278  61.113  0.00  0.00     0.058 C 
HETATM    3  C   UNK N   1      29.946  45.598  61.496  0.00  0.00     0.067 C 
HETATM    4  C   UNK N   1      30.286  46.481  60.287  0.00  0.00     0.039 C 
HETATM    5  C   UNK N   1      29.954  45.559  59.130  0.00  0.00     0.013 C 
HETATM    6  C   UNK N   1      30.597  44.206  59.526  0.00  0.00    -0.032 C 
HETATM    7  C   UNK N   1      31.937  44.113  58.728  0.00  0.00     0.037 C 
HETATM    8  C   UNK N   1      32.630  42.788  58.814  0.00  0.00    -0.023 C 
HETATM    9  C   UNK N   1      33.049  42.215  59.951  0.00  0.00    -0.085 C 
HETATM   10  C   UNK N   1      32.883  42.805  61.324  0.00  0.00     0.066 C 
HETATM   11  C   UNK N   1      33.729  40.868  59.891  0.00  0.00     0.043 C 
HETATM   12  C   UNK N   1      29.659  43.052  59.105  0.00  0.00     0.016 C 
ENDROOT
BRANCH   1  13
HETATM   13  O   UNK N   1      32.348  44.276  62.951  0.00  0.00    -0.311 OA
BRANCH  13  14
HETATM   14  C   UNK N   1      33.481  44.408  63.690  0.00  0.00     0.293 C 
HETATM   15  O   UNK N   1      33.662  43.733  64.692  0.00  0.00    -0.259 OA
BRANCH  14  16
HETATM   16  C   UNK N   1      34.470  45.424  63.266  0.00  0.00     0.039 A 
HETATM   17  C   UNK N   1      34.234  46.797  63.450  0.00  0.00     0.020 A 
HETATM   18  C   UNK N   1      35.191  47.732  63.038  0.00  0.00     0.037 A 
HETATM   19  C   UNK N   1      36.380  47.305  62.426  0.00  0.00     0.065 A 
HETATM   20  C   UNK N   1      36.607  45.942  62.227  0.00  0.00     0.037 A 
HETATM   21  C   UNK N   1      35.662  45.007  62.649  0.00  0.00     0.020 A 
BRANCH  19  22
HETATM   22  O   UNK N   1      37.310  48.196  62.025  0.00  0.00    -0.361 OA
HETATM   23  H   UNK N   1      37.797  48.084  61.196  0.00  0.00     0.217 HD
ENDBRANCH  19  22
ENDBRANCH  14  16
ENDBRANCH  13  14
ENDBRANCH   1  13
BRANCH   3  24
HETATM   24  O   UNK N   1      28.554  45.340  61.446  0.00  0.00    -0.389 OA
HETATM   25  H   UNK N   1      28.246  45.087  62.354  0.00  0.00     0.210 HD
ENDBRANCH   3  24
BRANCH   3  26
HETATM   26  C   UNK N   1      30.245  46.309  62.864  0.00  0.00     0.012 C 
HETATM   27  C   UNK N   1      30.109  47.845  62.767  0.00  0.00     0.012 C 
HETATM   28  C   UNK N   1      29.311  45.841  64.002  0.00  0.00     0.012 C 
ENDBRANCH   3  26
TORSDOF 6
ENDMDL
