MODEL 1
REMARK VINA RESULT:      -5.8      0.000      0.000
REMARK  5 active torsions:
REMARK  status: ('A' for Active; 'I' for Inactive)
REMARK    1  A    between atoms: C_3  and  O_4 
REMARK    2  A    between atoms: C_6  and  C_19 
REMARK    3  A    between atoms: C_10  and  O_11 
REMARK    4  A    between atoms: C_14  and  O_15 
REMARK    5  A    between atoms: C_22  and  O_23 
ROOT
HETATM    1  O   UNK N   1      41.539  43.050  46.887  0.00  0.00    -0.284 OA
HETATM    2  C   UNK N   1      41.437  44.187  47.309  0.00  0.00     0.223 A 
HETATM    3  C   UNK N   1      41.240  45.270  46.415  0.00  0.00     0.154 A 
HETATM    4  C   UNK N   1      41.126  46.568  46.954  0.00  0.00     0.123 A 
HETATM    5  O   UNK N   1      41.172  46.753  48.269  0.00  0.00    -0.306 OA
HETATM    6  C   UNK N   1      41.374  45.771  49.137  0.00  0.00     0.096 A 
HETATM    7  C   UNK N   1      41.519  44.440  48.700  0.00  0.00     0.085 A 
HETATM    8  C   UNK N   1      41.733  43.411  49.655  0.00  0.00     0.091 A 
HETATM    9  C   UNK N   1      41.810  43.737  51.036  0.00  0.00     0.005 A 
HETATM   10  C   UNK N   1      41.672  45.080  51.444  0.00  0.00     0.077 A 
HETATM   11  C   UNK N   1      41.452  46.081  50.494  0.00  0.00     0.075 A 
HETATM   12  C   UNK N   1      42.041  42.655  52.065  0.00  0.00     0.054 C 
ENDROOT
BRANCH   4  13
HETATM   13  C   UNK N   1      40.933  47.763  46.097  0.00  0.00     0.001 A 
HETATM   14  C   UNK N   1      42.016  48.585  45.727  0.00  0.00     0.017 A 
HETATM   15  C   UNK N   1      41.799  49.728  44.951  0.00  0.00     0.037 A 
HETATM   16  C   UNK N   1      40.506  50.050  44.515  0.00  0.00     0.065 A 
HETATM   17  C   UNK N   1      39.430  49.231  44.872  0.00  0.00     0.037 A 
HETATM   18  C   UNK N   1      39.639  48.104  45.673  0.00  0.00     0.017 A 
BRANCH  16  19
HETATM   19  O   UNK N   1      40.286  51.147  43.762  0.00  0.00    -0.361 OA
HETATM   20  H   UNK N   1      40.615  52.019  44.025  0.00  0.00     0.217 HD
ENDBRANCH  16  19
ENDBRANCH   4  13
BRANCH   3  21
HETATM   21  O   UNK N   1      41.103  45.110  45.065  0.00  0.00    -0.350 OA
HETATM   22  C   UNK N   1      41.964  44.459  44.207  0.00  0.00     0.210 C 
ENDBRANCH   3  21
BRANCH   8  23
HETATM   23  O   UNK N   1      41.865  42.128  49.242  0.00  0.00    -0.359 OA
HETATM   24  H   UNK N   1      42.613  41.803  48.725  0.00  0.00     0.218 HD
ENDBRANCH   8  23
BRANCH  10  25
HETATM   25  O   UNK N   1      41.751  45.408  52.752  0.00  0.00    -0.360 OA
HETATM   26  H   UNK N   1      42.550  45.800  53.134  0.00  0.00     0.217 HD
ENDBRANCH  10  25
TORSDOF 5
ENDMDL
MODEL 2
REMARK VINA RESULT:      -5.7     10.945     14.791
REMARK  5 active torsions:
REMARK  status: ('A' for Active; 'I' for Inactive)
REMARK    1  A    between atoms: C_3  and  O_4 
REMARK    2  A    between atoms: C_6  and  C_19 
REMARK    3  A    between atoms: C_10  and  O_11 
REMARK    4  A    between atoms: C_14  and  O_15 
REMARK    5  A    between atoms: C_22  and  O_23 
ROOT
HETATM    1  O   UNK N   1      30.661  55.142  43.372  0.00  0.00    -0.284 OA
HETATM    2  C   UNK N   1      30.668  54.148  42.669  0.00  0.00     0.223 A 
HETATM    3  C   UNK N   1      29.802  54.053  41.552  0.00  0.00     0.154 A 
HETATM    4  C   UNK N   1      29.850  52.882  40.768  0.00  0.00     0.123 A 
HETATM    5  O   UNK N   1      30.712  51.913  41.063  0.00  0.00    -0.306 OA
HETATM    6  C   UNK N   1      31.525  51.955  42.110  0.00  0.00     0.096 A 
HETATM    7  C   UNK N   1      31.541  53.073  42.966  0.00  0.00     0.085 A 
HETATM    8  C   UNK N   1      32.424  53.087  44.079  0.00  0.00     0.091 A 
HETATM    9  C   UNK N   1      33.270  51.970  44.320  0.00  0.00     0.005 A 
HETATM   10  C   UNK N   1      33.224  50.860  43.452  0.00  0.00     0.077 A 
HETATM   11  C   UNK N   1      32.357  50.864  42.356  0.00  0.00     0.075 A 
HETATM   12  C   UNK N   1      34.213  51.967  45.501  0.00  0.00     0.054 C 
ENDROOT
BRANCH   4  13
HETATM   13  C   UNK N   1      28.972  52.686  39.588  0.00  0.00     0.001 A 
HETATM   14  C   UNK N   1      29.322  53.193  38.320  0.00  0.00     0.017 A 
HETATM   15  C   UNK N   1      28.457  53.029  37.234  0.00  0.00     0.037 A 
HETATM   16  C   UNK N   1      27.248  52.337  37.392  0.00  0.00     0.065 A 
HETATM   17  C   UNK N   1      26.903  51.824  38.646  0.00  0.00     0.037 A 
HETATM   18  C   UNK N   1      27.751  52.012  39.742  0.00  0.00     0.017 A 
BRANCH  16  19
HETATM   19  O   UNK N   1      26.409  52.168  36.350  0.00  0.00    -0.361 OA
HETATM   20  H   UNK N   1      25.855  52.891  36.021  0.00  0.00     0.217 HD
ENDBRANCH  16  19
ENDBRANCH   4  13
BRANCH   3  21
HETATM   21  O   UNK N   1      28.964  55.061  41.167  0.00  0.00    -0.350 OA
HETATM   22  C   UNK N   1      27.718  55.356  41.680  0.00  0.00     0.210 C 
ENDBRANCH   3  21
BRANCH   8  23
HETATM   23  O   UNK N   1      32.451  54.162  44.901  0.00  0.00    -0.359 OA
HETATM   24  H   UNK N   1      33.104  54.871  44.841  0.00  0.00     0.218 HD
ENDBRANCH   8  23
BRANCH  10  25
HETATM   25  O   UNK N   1      34.015  49.787  43.673  0.00  0.00    -0.360 OA
HETATM   26  H   UNK N   1      33.686  48.993  44.118  0.00  0.00     0.217 HD
ENDBRANCH  10  25
TORSDOF 5
ENDMDL
MODEL 3
REMARK VINA RESULT:      -5.7      2.191      3.263
REMARK  5 active torsions:
REMARK  status: ('A' for Active; 'I' for Inactive)
REMARK    1  A    between atoms: C_3  and  O_4 
REMARK    2  A    between atoms: C_6  and  C_19 
REMARK    3  A    between atoms: C_10  and  O_11 
REMARK    4  A    between atoms: C_14  and  O_15 
REMARK    5  A    between atoms: C_22  and  O_23 
ROOT
HETATM    1  O   UNK N   1      43.352  47.377  47.717  0.00  0.00    -0.284 OA
HETATM    2  C   UNK N   1      42.218  47.415  47.277  0.00  0.00     0.223 A 
HETATM    3  C   UNK N   1      41.891  48.285  46.208  0.00  0.00     0.154 A 
HETATM    4  C   UNK N   1      40.563  48.290  45.733  0.00  0.00     0.123 A 
HETATM    5  O   UNK N   1      39.659  47.472  46.264  0.00  0.00    -0.306 OA
HETATM    6  C   UNK N   1      39.919  46.657  47.277  0.00  0.00     0.096 A 
HETATM    7  C   UNK N   1      41.210  46.590  47.835  0.00  0.00     0.085 A 
HETATM    8  C   UNK N   1      41.456  45.707  48.921  0.00  0.00     0.091 A 
HETATM    9  C   UNK N   1      40.397  44.912  49.436  0.00  0.00     0.005 A 
HETATM   10  C   UNK N   1      39.112  45.008  48.863  0.00  0.00     0.077 A 
HETATM   11  C   UNK N   1      38.887  45.875  47.790  0.00  0.00     0.075 A 
HETATM   12  C   UNK N   1      40.641  43.969  50.591  0.00  0.00     0.054 C 
ENDROOT
BRANCH   4  13
HETATM   13  C   UNK N   1      40.124  49.176  44.628  0.00  0.00     0.001 A 
HETATM   14  C   UNK N   1      40.664  50.468  44.462  0.00  0.00     0.017 A 
HETATM   15  C   UNK N   1      40.203  51.297  43.435  0.00  0.00     0.037 A 
HETATM   16  C   UNK N   1      39.218  50.840  42.548  0.00  0.00     0.065 A 
HETATM   17  C   UNK N   1      38.688  49.555  42.702  0.00  0.00     0.037 A 
HETATM   18  C   UNK N   1      39.124  48.735  43.747  0.00  0.00     0.017 A 
BRANCH  16  19
HETATM   19  O   UNK N   1      38.770  51.629  41.550  0.00  0.00    -0.361 OA
HETATM   20  H   UNK N   1      39.073  51.516  40.637  0.00  0.00     0.217 HD
ENDBRANCH  16  19
ENDBRANCH   4  13
BRANCH   3  21
HETATM   21  O   UNK N   1      42.810  49.078  45.580  0.00  0.00    -0.350 OA
HETATM   22  C   UNK N   1      44.047  49.461  46.054  0.00  0.00     0.210 C 
ENDBRANCH   3  21
BRANCH   8  23
HETATM   23  O   UNK N   1      42.698  45.631  49.457  0.00  0.00    -0.359 OA
HETATM   24  H   UNK N   1      43.265  44.852  49.395  0.00  0.00     0.218 HD
ENDBRANCH   8  23
BRANCH  10  25
HETATM   25  O   UNK N   1      38.092  44.265  49.347  0.00  0.00    -0.360 OA
HETATM   26  H   UNK N   1      37.886  44.234  50.292  0.00  0.00     0.217 HD
ENDBRANCH  10  25
TORSDOF 5
ENDMDL
MODEL 4
REMARK VINA RESULT:      -5.3      1.657      6.729
REMARK  5 active torsions:
REMARK  status: ('A' for Active; 'I' for Inactive)
REMARK    1  A    between atoms: C_3  and  O_4 
REMARK    2  A    between atoms: C_6  and  C_19 
REMARK    3  A    between atoms: C_10  and  O_11 
REMARK    4  A    between atoms: C_14  and  O_15 
REMARK    5  A    between atoms: C_22  and  O_23 
ROOT
HETATM    1  O   UNK N   1      41.376  45.819  45.001  0.00  0.00    -0.284 OA
HETATM    2  C   UNK N   1      41.024  46.246  46.084  0.00  0.00     0.223 A 
HETATM    3  C   UNK N   1      41.327  45.532  47.270  0.00  0.00     0.154 A 
HETATM    4  C   UNK N   1      40.898  46.070  48.501  0.00  0.00     0.123 A 
HETATM    5  O   UNK N   1      40.255  47.233  48.536  0.00  0.00    -0.306 OA
HETATM    6  C   UNK N   1      39.936  47.922  47.449  0.00  0.00     0.096 A 
HETATM    7  C   UNK N   1      40.302  47.462  46.170  0.00  0.00     0.085 A 
HETATM    8  C   UNK N   1      39.945  48.224  45.025  0.00  0.00     0.091 A 
HETATM    9  C   UNK N   1      39.215  49.433  45.184  0.00  0.00     0.005 A 
HETATM   10  C   UNK N   1      38.853  49.863  46.477  0.00  0.00     0.077 A 
HETATM   11  C   UNK N   1      39.219  49.108  47.594  0.00  0.00     0.075 A 
HETATM   12  C   UNK N   1      38.825  50.254  43.977  0.00  0.00     0.054 C 
ENDROOT
BRANCH   4  13
HETATM   13  C   UNK N   1      41.157  45.387  49.793  0.00  0.00     0.001 A 
HETATM   14  C   UNK N   1      40.442  44.233  50.171  0.00  0.00     0.017 A 
HETATM   15  C   UNK N   1      40.678  43.634  51.411  0.00  0.00     0.037 A 
HETATM   16  C   UNK N   1      41.645  44.162  52.277  0.00  0.00     0.065 A 
HETATM   17  C   UNK N   1      42.365  45.301  51.902  0.00  0.00     0.037 A 
HETATM   18  C   UNK N   1      42.110  45.921  50.675  0.00  0.00     0.017 A 
BRANCH  16  19
HETATM   19  O   UNK N   1      41.885  43.588  53.474  0.00  0.00    -0.361 OA
HETATM   20  H   UNK N   1      41.406  42.799  53.765  0.00  0.00     0.217 HD
ENDBRANCH  16  19
ENDBRANCH   4  13
BRANCH   3  21
HETATM   21  O   UNK N   1      42.059  44.378  47.283  0.00  0.00    -0.350 OA
HETATM   22  C   UNK N   1      41.731  43.172  46.698  0.00  0.00     0.210 C 
ENDBRANCH   3  21
BRANCH   8  23
HETATM   23  O   UNK N   1      40.301  47.791  43.792  0.00  0.00    -0.359 OA
HETATM   24  H   UNK N   1      39.936  48.143  42.971  0.00  0.00     0.218 HD
ENDBRANCH   8  23
BRANCH  10  25
HETATM   25  O   UNK N   1      38.151  51.006  46.644  0.00  0.00    -0.360 OA
HETATM   26  H   UNK N   1      37.534  51.330  45.972  0.00  0.00     0.217 HD
ENDBRANCH  10  25
TORSDOF 5
ENDMDL
MODEL 5
REMARK VINA RESULT:      -5.3     14.276     16.866
REMARK  5 active torsions:
REMARK  status: ('A' for Active; 'I' for Inactive)
REMARK    1  A    between atoms: C_3  and  O_4 
REMARK    2  A    between atoms: C_6  and  C_19 
REMARK    3  A    between atoms: C_10  and  O_11 
REMARK    4  A    between atoms: C_14  and  O_15 
REMARK    5  A    between atoms: C_22  and  O_23 
ROOT
HETATM    1  O   UNK N   1      26.795  45.784  58.002  0.00  0.00    -0.284 OA
HETATM    2  C   UNK N   1      27.990  46.013  58.038  0.00  0.00     0.223 A 
HETATM    3  C   UNK N   1      28.900  45.012  58.459  0.00  0.00     0.154 A 
HETATM    4  C   UNK N   1      30.275  45.327  58.482  0.00  0.00     0.123 A 
HETATM    5  O   UNK N   1      30.694  46.525  58.086  0.00  0.00    -0.306 OA
HETATM    6  C   UNK N   1      29.874  47.495  57.704  0.00  0.00     0.096 A 
HETATM    7  C   UNK N   1      28.481  47.287  57.663  0.00  0.00     0.085 A 
HETATM    8  C   UNK N   1      27.630  48.347  57.249  0.00  0.00     0.091 A 
HETATM    9  C   UNK N   1      28.191  49.603  56.893  0.00  0.00     0.005 A 
HETATM   10  C   UNK N   1      29.588  49.784  56.953  0.00  0.00     0.077 A 
HETATM   11  C   UNK N   1      30.414  48.731  57.353  0.00  0.00     0.075 A 
HETATM   12  C   UNK N   1      27.299  50.740  56.452  0.00  0.00     0.054 C 
ENDROOT
BRANCH   4  13
HETATM   13  C   UNK N   1      31.300  44.350  58.920  0.00  0.00     0.001 A 
HETATM   14  C   UNK N   1      31.470  44.021  60.280  0.00  0.00     0.017 A 
HETATM   15  C   UNK N   1      32.471  43.127  60.669  0.00  0.00     0.037 A 
HETATM   16  C   UNK N   1      33.298  42.531  59.706  0.00  0.00     0.065 A 
HETATM   17  C   UNK N   1      33.126  42.846  58.354  0.00  0.00     0.037 A 
HETATM   18  C   UNK N   1      32.145  43.763  57.964  0.00  0.00     0.017 A 
BRANCH  16  19
HETATM   19  O   UNK N   1      34.263  41.662  60.069  0.00  0.00    -0.361 OA
HETATM   20  H   UNK N   1      34.364  41.367  60.985  0.00  0.00     0.217 HD
ENDBRANCH  16  19
ENDBRANCH   4  13
BRANCH   3  21
HETATM   21  O   UNK N   1      28.517  43.743  58.791  0.00  0.00    -0.350 OA
HETATM   22  C   UNK N   1      28.293  42.686  57.935  0.00  0.00     0.210 C 
ENDBRANCH   3  21
BRANCH   8  23
HETATM   23  O   UNK N   1      26.290  48.152  57.200  0.00  0.00    -0.359 OA
HETATM   24  H   UNK N   1      25.667  48.784  56.820  0.00  0.00     0.218 HD
ENDBRANCH   8  23
BRANCH  10  25
HETATM   25  O   UNK N   1      30.136  50.975  56.625  0.00  0.00    -0.360 OA
HETATM   26  H   UNK N   1      29.737  51.557  55.963  0.00  0.00     0.217 HD
ENDBRANCH  10  25
TORSDOF 5
ENDMDL
MODEL 6
REMARK VINA RESULT:      -5.3     14.226     16.149
REMARK  5 active torsions:
REMARK  status: ('A' for Active; 'I' for Inactive)
REMARK    1  A    between atoms: C_3  and  O_4 
REMARK    2  A    between atoms: C_6  and  C_19 
REMARK    3  A    between atoms: C_10  and  O_11 
REMARK    4  A    between atoms: C_14  and  O_15 
REMARK    5  A    between atoms: C_22  and  O_23 
ROOT
HETATM    1  O   UNK N   1      26.873  38.609  53.589  0.00  0.00    -0.284 OA
HETATM    2  C   UNK N   1      27.355  39.720  53.467  0.00  0.00     0.223 A 
HETATM    3  C   UNK N   1      28.310  40.194  54.401  0.00  0.00     0.154 A 
HETATM    4  C   UNK N   1      28.841  41.487  54.215  0.00  0.00     0.123 A 
HETATM    5  O   UNK N   1      28.470  42.219  53.169  0.00  0.00    -0.306 OA
HETATM    6  C   UNK N   1      27.566  41.821  52.284  0.00  0.00     0.096 A 
HETATM    7  C   UNK N   1      26.963  40.553  52.391  0.00  0.00     0.085 A 
HETATM    8  C   UNK N   1      25.998  40.156  51.426  0.00  0.00     0.091 A 
HETATM    9  C   UNK N   1      25.647  41.045  50.375  0.00  0.00     0.005 A 
HETATM   10  C   UNK N   1      26.260  42.312  50.299  0.00  0.00     0.077 A 
HETATM   11  C   UNK N   1      27.214  42.686  51.250  0.00  0.00     0.075 A 
HETATM   12  C   UNK N   1      24.621  40.639  49.342  0.00  0.00     0.054 C 
ENDROOT
BRANCH   4  13
HETATM   13  C   UNK N   1      29.834  42.073  55.148  0.00  0.00     0.001 A 
HETATM   14  C   UNK N   1      29.434  42.782  56.298  0.00  0.00     0.017 A 
HETATM   15  C   UNK N   1      30.391  43.358  57.139  0.00  0.00     0.037 A 
HETATM   16  C   UNK N   1      31.756  43.214  56.856  0.00  0.00     0.065 A 
HETATM   17  C   UNK N   1      32.158  42.503  55.721  0.00  0.00     0.037 A 
HETATM   18  C   UNK N   1      31.203  41.951  54.862  0.00  0.00     0.017 A 
BRANCH  16  19
HETATM   19  O   UNK N   1      32.689  43.761  57.663  0.00  0.00    -0.361 OA
HETATM   20  H   UNK N   1      32.988  43.316  58.469  0.00  0.00     0.217 HD
ENDBRANCH  16  19
ENDBRANCH   4  13
BRANCH   3  21
HETATM   21  O   UNK N   1      28.780  39.440  55.439  0.00  0.00    -0.350 OA
HETATM   22  C   UNK N   1      29.716  38.428  55.382  0.00  0.00     0.210 C 
ENDBRANCH   3  21
BRANCH   8  23
HETATM   23  O   UNK N   1      25.420  38.935  51.518  0.00  0.00    -0.359 OA
HETATM   24  H   UNK N   1      25.899  38.127  51.743  0.00  0.00     0.218 HD
ENDBRANCH   8  23
BRANCH  10  25
HETATM   25  O   UNK N   1      25.930  43.172  49.311  0.00  0.00    -0.360 OA
HETATM   26  H   UNK N   1      25.644  44.078  49.496  0.00  0.00     0.217 HD
ENDBRANCH  10  25
TORSDOF 5
ENDMDL
MODEL 7
REMARK VINA RESULT:      -5.3     12.864     16.771
REMARK  5 active torsions:
REMARK  status: ('A' for Active; 'I' for Inactive)
REMARK    1  A    between atoms: C_3  and  O_4 
REMARK    2  A    between atoms: C_6  and  C_19 
REMARK    3  A    between atoms: C_10  and  O_11 
REMARK    4  A    between atoms: C_14  and  O_15 
REMARK    5  A    between atoms: C_22  and  O_23 
ROOT
HETATM    1  O   UNK N   1      29.003  52.139  39.478  0.00  0.00    -0.284 OA
HETATM    2  C   UNK N   1      28.917  52.978  40.354  0.00  0.00     0.223 A 
HETATM    3  C   UNK N   1      29.997  53.200  41.245  0.00  0.00     0.154 A 
HETATM    4  C   UNK N   1      29.848  54.186  42.242  0.00  0.00     0.123 A 
HETATM    5  O   UNK N   1      28.731  54.902  42.314  0.00  0.00    -0.306 OA
HETATM    6  C   UNK N   1      27.690  54.713  41.513  0.00  0.00     0.096 A 
HETATM    7  C   UNK N   1      27.731  53.740  40.496  0.00  0.00     0.085 A 
HETATM    8  C   UNK N   1      26.600  53.563  39.655  0.00  0.00     0.091 A 
HETATM    9  C   UNK N   1      25.440  54.359  39.857  0.00  0.00     0.005 A 
HETATM   10  C   UNK N   1      25.425  55.318  40.890  0.00  0.00     0.077 A 
HETATM   11  C   UNK N   1      26.548  55.488  41.704  0.00  0.00     0.075 A 
HETATM   12  C   UNK N   1      24.228  54.180  38.973  0.00  0.00     0.054 C 
ENDROOT
BRANCH   4  13
HETATM   13  C   UNK N   1      30.918  54.479  43.227  0.00  0.00     0.001 A 
HETATM   14  C   UNK N   1      30.779  54.137  44.587  0.00  0.00     0.017 A 
HETATM   15  C   UNK N   1      31.786  54.462  45.501  0.00  0.00     0.037 A 
HETATM   16  C   UNK N   1      32.953  55.106  45.065  0.00  0.00     0.065 A 
HETATM   17  C   UNK N   1      33.099  55.438  43.715  0.00  0.00     0.037 A 
HETATM   18  C   UNK N   1      32.080  55.142  42.804  0.00  0.00     0.017 A 
BRANCH  16  19
HETATM   19  O   UNK N   1      33.933  55.419  45.937  0.00  0.00    -0.361 OA
HETATM   20  H   UNK N   1      34.361  54.745  46.484  0.00  0.00     0.217 HD
ENDBRANCH  16  19
ENDBRANCH   4  13
BRANCH   3  21
HETATM   21  O   UNK N   1      31.192  52.544  41.149  0.00  0.00    -0.350 OA
HETATM   22  C   UNK N   1      31.483  51.267  41.582  0.00  0.00     0.210 C 
ENDBRANCH   3  21
BRANCH   8  23
HETATM   23  O   UNK N   1      26.636  52.634  38.669  0.00  0.00    -0.359 OA
HETATM   24  H   UNK N   1      27.394  52.495  38.088  0.00  0.00     0.218 HD
ENDBRANCH   8  23
BRANCH  10  25
HETATM   25  O   UNK N   1      24.327  56.076  41.101  0.00  0.00    -0.360 OA
HETATM   26  H   UNK N   1      23.926  56.164  41.978  0.00  0.00     0.217 HD
ENDBRANCH  10  25
TORSDOF 5
ENDMDL
MODEL 8
REMARK VINA RESULT:      -5.1     13.736     15.367
REMARK  5 active torsions:
REMARK  status: ('A' for Active; 'I' for Inactive)
REMARK    1  A    between atoms: C_3  and  O_4 
REMARK    2  A    between atoms: C_6  and  C_19 
REMARK    3  A    between atoms: C_10  and  O_11 
REMARK    4  A    between atoms: C_14  and  O_15 
REMARK    5  A    between atoms: C_22  and  O_23 
ROOT
HETATM    1  O   UNK N   1      28.352  40.402  58.467  0.00  0.00    -0.284 OA
HETATM    2  C   UNK N   1      28.915  41.083  57.631  0.00  0.00     0.223 A 
HETATM    3  C   UNK N   1      28.350  41.250  56.342  0.00  0.00     0.154 A 
HETATM    4  C   UNK N   1      29.040  42.051  55.409  0.00  0.00     0.123 A 
HETATM    5  O   UNK N   1      30.175  42.652  55.752  0.00  0.00    -0.306 OA
HETATM    6  C   UNK N   1      30.747  42.506  56.940  0.00  0.00     0.096 A 
HETATM    7  C   UNK N   1      30.147  41.712  57.936  0.00  0.00     0.085 A 
HETATM    8  C   UNK N   1      30.786  41.575  59.198  0.00  0.00     0.091 A 
HETATM    9  C   UNK N   1      32.024  42.231  59.435  0.00  0.00     0.005 A 
HETATM   10  C   UNK N   1      32.606  43.010  58.414  0.00  0.00     0.077 A 
HETATM   11  C   UNK N   1      31.963  43.143  57.181  0.00  0.00     0.075 A 
HETATM   12  C   UNK N   1      32.718  42.094  60.770  0.00  0.00     0.054 C 
ENDROOT
BRANCH   4  13
HETATM   13  C   UNK N   1      28.533  42.273  54.033  0.00  0.00     0.001 A 
HETATM   14  C   UNK N   1      29.259  41.844  52.904  0.00  0.00     0.017 A 
HETATM   15  C   UNK N   1      28.776  42.102  51.617  0.00  0.00     0.037 A 
HETATM   16  C   UNK N   1      27.555  42.767  51.442  0.00  0.00     0.065 A 
HETATM   17  C   UNK N   1      26.826  43.185  52.560  0.00  0.00     0.037 A 
HETATM   18  C   UNK N   1      27.320  42.955  53.848  0.00  0.00     0.017 A 
BRANCH  16  19
HETATM   19  O   UNK N   1      27.077  43.017  50.205  0.00  0.00    -0.361 OA
HETATM   20  H   UNK N   1      26.550  43.805  50.013  0.00  0.00     0.217 HD
ENDBRANCH  16  19
ENDBRANCH   4  13
BRANCH   3  21
HETATM   21  O   UNK N   1      27.144  40.719  55.980  0.00  0.00    -0.350 OA
HETATM   22  C   UNK N   1      26.899  39.449  55.501  0.00  0.00     0.210 C 
ENDBRANCH   3  21
BRANCH   8  23
HETATM   23  O   UNK N   1      30.210  40.820  60.164  0.00  0.00    -0.359 OA
HETATM   24  H   UNK N   1      30.567  40.721  61.055  0.00  0.00     0.218 HD
ENDBRANCH   8  23
BRANCH  10  25
HETATM   25  O   UNK N   1      33.788  43.632  58.621  0.00  0.00    -0.360 OA
HETATM   26  H   UNK N   1      34.572  43.153  58.926  0.00  0.00     0.217 HD
ENDBRANCH  10  25
TORSDOF 5
ENDMDL
MODEL 9
REMARK VINA RESULT:      -5.0     10.698     14.626
REMARK  5 active torsions:
REMARK  status: ('A' for Active; 'I' for Inactive)
REMARK    1  A    between atoms: C_3  and  O_4 
REMARK    2  A    between atoms: C_6  and  C_19 
REMARK    3  A    between atoms: C_10  and  O_11 
REMARK    4  A    between atoms: C_14  and  O_15 
REMARK    5  A    between atoms: C_22  and  O_23 
ROOT
HETATM    1  O   UNK N   1      31.353  50.526  41.897  0.00  0.00    -0.284 OA
HETATM    2  C   UNK N   1      31.256  51.730  42.051  0.00  0.00     0.223 A 
HETATM    3  C   UNK N   1      32.008  52.389  43.055  0.00  0.00     0.154 A 
HETATM    4  C   UNK N   1      31.860  53.784  43.191  0.00  0.00     0.123 A 
HETATM    5  O   UNK N   1      31.058  54.456  42.371  0.00  0.00    -0.306 OA
HETATM    6  C   UNK N   1      30.323  53.876  41.432  0.00  0.00     0.096 A 
HETATM    7  C   UNK N   1      30.384  52.484  41.227  0.00  0.00     0.085 A 
HETATM    8  C   UNK N   1      29.585  51.892  40.212  0.00  0.00     0.091 A 
HETATM    9  C   UNK N   1      28.727  52.708  39.427  0.00  0.00     0.005 A 
HETATM   10  C   UNK N   1      28.680  54.098  39.662  0.00  0.00     0.077 A 
HETATM   11  C   UNK N   1      29.478  54.667  40.657  0.00  0.00     0.075 A 
HETATM   12  C   UNK N   1      27.869  52.095  38.345  0.00  0.00     0.054 C 
ENDROOT
BRANCH   4  13
HETATM   13  C   UNK N   1      32.595  54.558  44.222  0.00  0.00     0.001 A 
HETATM   14  C   UNK N   1      32.044  54.790  45.498  0.00  0.00     0.017 A 
HETATM   15  C   UNK N   1      32.741  55.557  46.437  0.00  0.00     0.037 A 
HETATM   16  C   UNK N   1      34.004  56.079  46.124  0.00  0.00     0.065 A 
HETATM   17  C   UNK N   1      34.559  55.842  44.862  0.00  0.00     0.037 A 
HETATM   18  C   UNK N   1      33.851  55.101  43.910  0.00  0.00     0.017 A 
BRANCH  16  19
HETATM   19  O   UNK N   1      34.688  56.815  47.023  0.00  0.00    -0.361 OA
HETATM   20  H   UNK N   1      34.238  57.411  47.639  0.00  0.00     0.217 HD
ENDBRANCH  16  19
ENDBRANCH   4  13
BRANCH   3  21
HETATM   21  O   UNK N   1      32.906  51.746  43.860  0.00  0.00    -0.350 OA
HETATM   22  C   UNK N   1      34.154  51.274  43.511  0.00  0.00     0.210 C 
ENDBRANCH   3  21
BRANCH   8  23
HETATM   23  O   UNK N   1      29.645  50.555  40.005  0.00  0.00    -0.359 OA
HETATM   24  H   UNK N   1      30.435  50.092  39.698  0.00  0.00     0.218 HD
ENDBRANCH   8  23
BRANCH  10  25
HETATM   25  O   UNK N   1      27.863  54.887  38.929  0.00  0.00    -0.360 OA
HETATM   26  H   UNK N   1      28.209  55.532  38.296  0.00  0.00     0.217 HD
ENDBRANCH  10  25
TORSDOF 5
ENDMDL
