MODEL 1
REMARK VINA RESULT:      -6.8      0.000      0.000
REMARK  9 active torsions:
REMARK  status: ('A' for Active; 'I' for Inactive)
REMARK    1  A    between atoms: C_3  and  O_4 
REMARK    2  A    between atoms: O_4  and  C_5 
REMARK    3  A    between atoms: C_8  and  O_9 
REMARK    4  A    between atoms: C_11  and  O_12 
REMARK    5  A    between atoms: C_14  and  O_15 
REMARK    6  A    between atoms: C_17  and  C_29 
REMARK    7  A    between atoms: C_21  and  O_22 
REMARK    8  A    between atoms: C_25  and  O_27 
REMARK    9  A    between atoms: C_32  and  O_33 
ROOT
HETATM    1  O   UNK N   1      42.613  46.495  51.441  0.00  0.00    -0.284 OA
HETATM    2  C   UNK N   1      41.955  45.609  50.927  0.00  0.00     0.223 A 
HETATM    3  C   UNK N   1      41.957  45.451  49.529  0.00  0.00     0.157 A 
HETATM    4  C   UNK N   1      41.200  44.407  48.962  0.00  0.00     0.124 A 
HETATM    5  O   UNK N   1      40.469  43.616  49.743  0.00  0.00    -0.306 OA
HETATM    6  C   UNK N   1      40.449  43.718  51.066  0.00  0.00     0.096 A 
HETATM    7  C   UNK N   1      41.196  44.722  51.722  0.00  0.00     0.084 A 
HETATM    8  C   UNK N   1      41.156  44.802  53.138  0.00  0.00     0.085 A 
HETATM    9  C   UNK N   1      40.388  43.878  53.863  0.00  0.00     0.074 A 
HETATM   10  C   UNK N   1      39.662  42.882  53.204  0.00  0.00     0.071 A 
HETATM   11  C   UNK N   1      39.690  42.808  51.807  0.00  0.00     0.075 A 
ENDROOT
BRANCH   3  12
HETATM   12  O   UNK N   1      42.629  46.316  48.723  0.00  0.00    -0.311 OA
BRANCH  12  13
HETATM   13  C   UNK N   1      42.006  47.402  48.126  0.00  0.00     0.297 C 
HETATM   14  O   UNK N   1      40.674  47.027  47.788  0.00  0.00    -0.356 OA
HETATM   15  C   UNK N   1      39.958  48.132  47.261  0.00  0.00     0.205 C 
HETATM   16  C   UNK N   1      40.563  48.588  45.919  0.00  0.00     0.173 C 
HETATM   17  C   UNK N   1      42.038  48.969  46.155  0.00  0.00     0.182 C 
HETATM   18  C   UNK N   1      42.787  47.813  46.857  0.00  0.00     0.205 C 
BRANCH  16  19
HETATM   19  O   UNK N   1      40.430  47.594  44.929  0.00  0.00    -0.391 OA
HETATM   20  H   UNK N   1      41.086  46.872  45.102  0.00  0.00     0.210 HD
ENDBRANCH  16  19
BRANCH  17  21
HETATM   21  O   UNK N   1      42.670  49.363  44.963  0.00  0.00    -0.390 OA
HETATM   22  H   UNK N   1      41.983  49.779  44.380  0.00  0.00     0.210 HD
ENDBRANCH  17  21
BRANCH  18  23
HETATM   23  O   UNK N   1      44.107  48.185  47.172  0.00  0.00    -0.388 OA
HETATM   24  H   UNK N   1      44.688  47.394  47.020  0.00  0.00     0.210 HD
ENDBRANCH  18  23
ENDBRANCH  12  13
ENDBRANCH   3  12
BRANCH   4  25
HETATM   25  C   UNK N   1      41.176  44.157  47.504  0.00  0.00     0.001 A 
HETATM   26  C   UNK N   1      40.005  44.369  46.753  0.00  0.00     0.017 A 
HETATM   27  C   UNK N   1      40.016  44.188  45.366  0.00  0.00     0.037 A 
HETATM   28  C   UNK N   1      41.187  43.766  44.720  0.00  0.00     0.065 A 
HETATM   29  C   UNK N   1      42.346  43.536  45.468  0.00  0.00     0.037 A 
HETATM   30  C   UNK N   1      42.348  43.750  46.849  0.00  0.00     0.017 A 
BRANCH  28  31
HETATM   31  O   UNK N   1      41.210  43.587  43.384  0.00  0.00    -0.361 OA
HETATM   32  H   UNK N   1      42.037  43.601  42.882  0.00  0.00     0.217 HD
ENDBRANCH  28  31
ENDBRANCH   4  25
BRANCH   8  33
HETATM   33  O   UNK N   1      41.851  45.754  53.796  0.00  0.00    -0.360 OA
HETATM   34  H   UNK N   1      42.746  45.596  54.131  0.00  0.00     0.217 HD
ENDBRANCH   8  33
BRANCH  10  35
HETATM   35  O   UNK N   1      38.941  41.999  53.924  0.00  0.00    -0.361 OA
HETATM   36  H   UNK N   1      38.174  42.274  54.448  0.00  0.00     0.217 HD
ENDBRANCH  10  35
TORSDOF 9
ENDMDL
MODEL 2
REMARK VINA RESULT:      -6.6     14.029     16.933
REMARK  9 active torsions:
REMARK  status: ('A' for Active; 'I' for Inactive)
REMARK    1  A    between atoms: C_3  and  O_4 
REMARK    2  A    between atoms: O_4  and  C_5 
REMARK    3  A    between atoms: C_8  and  O_9 
REMARK    4  A    between atoms: C_11  and  O_12 
REMARK    5  A    between atoms: C_14  and  O_15 
REMARK    6  A    between atoms: C_17  and  C_29 
REMARK    7  A    between atoms: C_21  and  O_22 
REMARK    8  A    between atoms: C_25  and  O_27 
REMARK    9  A    between atoms: C_32  and  O_33 
ROOT
HETATM    1  O   UNK N   1      30.805  56.071  43.020  0.00  0.00    -0.284 OA
HETATM    2  C   UNK N   1      30.797  54.937  42.575  0.00  0.00     0.223 A 
HETATM    3  C   UNK N   1      30.015  54.629  41.447  0.00  0.00     0.157 A 
HETATM    4  C   UNK N   1      30.038  53.314  40.942  0.00  0.00     0.124 A 
HETATM    5  O   UNK N   1      30.759  52.379  41.556  0.00  0.00    -0.306 OA
HETATM    6  C   UNK N   1      31.523  52.628  42.613  0.00  0.00     0.096 A 
HETATM    7  C   UNK N   1      31.579  53.924  43.172  0.00  0.00     0.084 A 
HETATM    8  C   UNK N   1      32.408  54.157  44.299  0.00  0.00     0.085 A 
HETATM    9  C   UNK N   1      33.167  53.104  44.832  0.00  0.00     0.074 A 
HETATM   10  C   UNK N   1      33.112  51.828  44.264  0.00  0.00     0.071 A 
HETATM   11  C   UNK N   1      32.287  51.592  43.158  0.00  0.00     0.075 A 
ENDROOT
BRANCH   3  12
HETATM   12  O   UNK N   1      29.205  55.560  40.875  0.00  0.00    -0.311 OA
BRANCH  12  13
HETATM   13  C   UNK N   1      27.977  55.903  41.421  0.00  0.00     0.297 C 
HETATM   14  O   UNK N   1      26.951  55.313  40.627  0.00  0.00    -0.356 OA
HETATM   15  C   UNK N   1      25.674  55.551  41.197  0.00  0.00     0.205 C 
HETATM   16  C   UNK N   1      25.337  57.055  41.177  0.00  0.00     0.173 C 
HETATM   17  C   UNK N   1      26.424  57.809  41.967  0.00  0.00     0.182 C 
HETATM   18  C   UNK N   1      27.829  57.442  41.434  0.00  0.00     0.205 C 
BRANCH  16  19
HETATM   19  O   UNK N   1      25.215  57.537  39.858  0.00  0.00    -0.391 OA
HETATM   20  H   UNK N   1      25.599  58.450  39.809  0.00  0.00     0.210 HD
ENDBRANCH  16  19
BRANCH  17  21
HETATM   21  O   UNK N   1      26.202  59.197  41.961  0.00  0.00    -0.390 OA
HETATM   22  H   UNK N   1      27.076  59.644  42.108  0.00  0.00     0.210 HD
ENDBRANCH  17  21
BRANCH  18  23
HETATM   23  O   UNK N   1      28.835  58.042  42.212  0.00  0.00    -0.388 OA
HETATM   24  H   UNK N   1      28.835  57.599  43.101  0.00  0.00     0.210 HD
ENDBRANCH  18  23
ENDBRANCH  12  13
ENDBRANCH   3  12
BRANCH   4  25
HETATM   25  C   UNK N   1      29.268  52.920  39.742  0.00  0.00     0.001 A 
HETATM   26  C   UNK N   1      28.120  52.114  39.851  0.00  0.00     0.017 A 
HETATM   27  C   UNK N   1      27.368  51.802  38.714  0.00  0.00     0.037 A 
HETATM   28  C   UNK N   1      27.773  52.267  37.454  0.00  0.00     0.065 A 
HETATM   29  C   UNK N   1      28.924  53.051  37.341  0.00  0.00     0.037 A 
HETATM   30  C   UNK N   1      29.658  53.393  38.480  0.00  0.00     0.017 A 
BRANCH  28  31
HETATM   31  O   UNK N   1      27.057  51.971  36.350  0.00  0.00    -0.361 OA
HETATM   32  H   UNK N   1      27.437  52.042  35.462  0.00  0.00     0.217 HD
ENDBRANCH  28  31
ENDBRANCH   4  25
BRANCH   8  33
HETATM   33  O   UNK N   1      32.479  55.382  44.863  0.00  0.00    -0.360 OA
HETATM   34  H   UNK N   1      33.161  56.022  44.615  0.00  0.00     0.217 HD
ENDBRANCH   8  33
BRANCH  10  35
HETATM   35  O   UNK N   1      33.860  50.835  44.786  0.00  0.00    -0.361 OA
HETATM   36  H   UNK N   1      33.503  50.223  45.447  0.00  0.00     0.217 HD
ENDBRANCH  10  35
TORSDOF 9
ENDMDL
MODEL 3
REMARK VINA RESULT:      -6.0     12.700     16.753
REMARK  9 active torsions:
REMARK  status: ('A' for Active; 'I' for Inactive)
REMARK    1  A    between atoms: C_3  and  O_4 
REMARK    2  A    between atoms: O_4  and  C_5 
REMARK    3  A    between atoms: C_8  and  O_9 
REMARK    4  A    between atoms: C_11  and  O_12 
REMARK    5  A    between atoms: C_14  and  O_15 
REMARK    6  A    between atoms: C_17  and  C_29 
REMARK    7  A    between atoms: C_21  and  O_22 
REMARK    8  A    between atoms: C_25  and  O_27 
REMARK    9  A    between atoms: C_32  and  O_33 
ROOT
HETATM    1  O   UNK N   1      27.160  38.777  52.853  0.00  0.00    -0.284 OA
HETATM    2  C   UNK N   1      27.436  39.953  53.011  0.00  0.00     0.223 A 
HETATM    3  C   UNK N   1      28.409  40.326  53.956  0.00  0.00     0.157 A 
HETATM    4  C   UNK N   1      28.721  41.692  54.107  0.00  0.00     0.124 A 
HETATM    5  O   UNK N   1      28.070  42.606  53.392  0.00  0.00    -0.306 OA
HETATM    6  C   UNK N   1      27.155  42.298  52.479  0.00  0.00     0.096 A 
HETATM    7  C   UNK N   1      26.796  40.952  52.245  0.00  0.00     0.084 A 
HETATM    8  C   UNK N   1      25.818  40.657  51.261  0.00  0.00     0.085 A 
HETATM    9  C   UNK N   1      25.234  41.702  50.528  0.00  0.00     0.074 A 
HETATM   10  C   UNK N   1      25.605  43.029  50.762  0.00  0.00     0.071 A 
HETATM   11  C   UNK N   1      26.561  43.324  51.740  0.00  0.00     0.075 A 
ENDROOT
BRANCH   3  12
HETATM   12  O   UNK N   1      29.009  39.402  54.753  0.00  0.00    -0.311 OA
BRANCH  12  13
HETATM   13  C   UNK N   1      28.400  38.913  55.899  0.00  0.00     0.297 C 
HETATM   14  O   UNK N   1      29.052  39.477  57.032  0.00  0.00    -0.356 OA
HETATM   15  C   UNK N   1      28.407  39.086  58.233  0.00  0.00     0.205 C 
HETATM   16  C   UNK N   1      28.536  37.566  58.454  0.00  0.00     0.173 C 
HETATM   17  C   UNK N   1      27.906  36.843  57.247  0.00  0.00     0.182 C 
HETATM   18  C   UNK N   1      28.513  37.371  55.927  0.00  0.00     0.205 C 
BRANCH  16  19
HETATM   19  O   UNK N   1      29.878  37.187  58.652  0.00  0.00    -0.391 OA
HETATM   20  H   UNK N   1      29.913  36.440  59.303  0.00  0.00     0.210 HD
ENDBRANCH  16  19
BRANCH  17  21
HETATM   21  O   UNK N   1      28.019  35.447  57.361  0.00  0.00    -0.390 OA
HETATM   22  H   UNK N   1      27.151  35.050  57.090  0.00  0.00     0.210 HD
ENDBRANCH  17  21
BRANCH  18  23
HETATM   23  O   UNK N   1      27.876  36.795  54.813  0.00  0.00    -0.388 OA
HETATM   24  H   UNK N   1      27.412  35.973  55.123  0.00  0.00     0.210 HD
ENDBRANCH  18  23
ENDBRANCH  12  13
ENDBRANCH   3  12
BRANCH   4  25
HETATM   25  C   UNK N   1      29.755  42.161  55.056  0.00  0.00     0.001 A 
HETATM   26  C   UNK N   1      31.123  41.989  54.778  0.00  0.00     0.017 A 
HETATM   27  C   UNK N   1      32.088  42.494  55.655  0.00  0.00     0.037 A 
HETATM   28  C   UNK N   1      31.696  43.147  56.833  0.00  0.00     0.065 A 
HETATM   29  C   UNK N   1      30.336  43.302  57.120  0.00  0.00     0.037 A 
HETATM   30  C   UNK N   1      29.370  42.829  56.228  0.00  0.00     0.017 A 
BRANCH  28  31
HETATM   31  O   UNK N   1      32.617  43.637  57.687  0.00  0.00    -0.361 OA
HETATM   32  H   UNK N   1      32.941  43.119  58.438  0.00  0.00     0.217 HD
ENDBRANCH  28  31
ENDBRANCH   4  25
BRANCH   8  33
HETATM   33  O   UNK N   1      25.446  39.382  51.017  0.00  0.00    -0.360 OA
HETATM   34  H   UNK N   1      26.041  38.636  51.173  0.00  0.00     0.217 HD
ENDBRANCH   8  33
BRANCH  10  35
HETATM   35  O   UNK N   1      25.037  44.015  50.037  0.00  0.00    -0.361 OA
HETATM   36  H   UNK N   1      24.524  44.722  50.454  0.00  0.00     0.217 HD
ENDBRANCH  10  35
TORSDOF 9
ENDMDL
MODEL 4
REMARK VINA RESULT:      -5.9     12.772     15.844
REMARK  9 active torsions:
REMARK  status: ('A' for Active; 'I' for Inactive)
REMARK    1  A    between atoms: C_3  and  O_4 
REMARK    2  A    between atoms: O_4  and  C_5 
REMARK    3  A    between atoms: C_8  and  O_9 
REMARK    4  A    between atoms: C_11  and  O_12 
REMARK    5  A    between atoms: C_14  and  O_15 
REMARK    6  A    between atoms: C_17  and  C_29 
REMARK    7  A    between atoms: C_21  and  O_22 
REMARK    8  A    between atoms: C_25  and  O_27 
REMARK    9  A    between atoms: C_32  and  O_33 
ROOT
HETATM    1  O   UNK N   1      29.177  45.702  61.658  0.00  0.00    -0.284 OA
HETATM    2  C   UNK N   1      29.464  45.914  60.494  0.00  0.00     0.223 A 
HETATM    3  C   UNK N   1      29.735  44.838  59.629  0.00  0.00     0.157 A 
HETATM    4  C   UNK N   1      30.047  45.112  58.283  0.00  0.00     0.124 A 
HETATM    5  O   UNK N   1      30.123  46.371  57.859  0.00  0.00    -0.306 OA
HETATM    6  C   UNK N   1      29.861  47.415  58.636  0.00  0.00     0.096 A 
HETATM    7  C   UNK N   1      29.516  47.234  59.995  0.00  0.00     0.084 A 
HETATM    8  C   UNK N   1      29.239  48.370  60.796  0.00  0.00     0.085 A 
HETATM    9  C   UNK N   1      29.298  49.652  60.227  0.00  0.00     0.074 A 
HETATM   10  C   UNK N   1      29.630  49.819  58.880  0.00  0.00     0.071 A 
HETATM   11  C   UNK N   1      29.915  48.700  58.089  0.00  0.00     0.075 A 
ENDROOT
BRANCH   3  12
HETATM   12  O   UNK N   1      29.750  43.556  60.082  0.00  0.00    -0.311 OA
BRANCH  12  13
HETATM   13  C   UNK N   1      30.883  42.987  60.642  0.00  0.00     0.297 C 
HETATM   14  O   UNK N   1      31.987  43.857  60.408  0.00  0.00    -0.356 OA
HETATM   15  C   UNK N   1      33.157  43.369  61.045  0.00  0.00     0.205 C 
HETATM   16  C   UNK N   1      33.604  42.033  60.421  0.00  0.00     0.173 C 
HETATM   17  C   UNK N   1      32.453  41.018  60.566  0.00  0.00     0.182 C 
HETATM   18  C   UNK N   1      31.142  41.606  59.995  0.00  0.00     0.205 C 
BRANCH  16  19
HETATM   19  O   UNK N   1      33.993  42.197  59.077  0.00  0.00    -0.391 OA
HETATM   20  H   UNK N   1      33.257  42.631  58.575  0.00  0.00     0.210 HD
ENDBRANCH  16  19
BRANCH  17  21
HETATM   21  O   UNK N   1      32.775  39.780  59.984  0.00  0.00    -0.390 OA
HETATM   22  H   UNK N   1      31.998  39.175  60.110  0.00  0.00     0.210 HD
ENDBRANCH  17  21
BRANCH  18  23
HETATM   23  O   UNK N   1      30.061  40.733  60.213  0.00  0.00    -0.388 OA
HETATM   24  H   UNK N   1      29.799  40.809  61.168  0.00  0.00     0.210 HD
ENDBRANCH  18  23
ENDBRANCH  12  13
ENDBRANCH   3  12
BRANCH   4  25
HETATM   25  C   UNK N   1      30.313  44.034  57.304  0.00  0.00     0.001 A 
HETATM   26  C   UNK N   1      29.259  43.298  56.734  0.00  0.00     0.017 A 
HETATM   27  C   UNK N   1      29.523  42.325  55.765  0.00  0.00     0.037 A 
HETATM   28  C   UNK N   1      30.844  42.057  55.378  0.00  0.00     0.065 A 
HETATM   29  C   UNK N   1      31.895  42.774  55.957  0.00  0.00     0.037 A 
HETATM   30  C   UNK N   1      31.631  43.771  56.901  0.00  0.00     0.017 A 
BRANCH  28  31
HETATM   31  O   UNK N   1      31.111  41.121  54.445  0.00  0.00    -0.361 OA
HETATM   32  H   UNK N   1      32.011  40.963  54.125  0.00  0.00     0.217 HD
ENDBRANCH  28  31
ENDBRANCH   4  25
BRANCH   8  33
HETATM   33  O   UNK N   1      28.914  48.234  62.100  0.00  0.00    -0.360 OA
HETATM   34  H   UNK N   1      29.461  47.723  62.713  0.00  0.00     0.217 HD
ENDBRANCH   8  33
BRANCH  10  35
HETATM   35  O   UNK N   1      29.669  51.060  58.353  0.00  0.00    -0.361 OA
HETATM   36  H   UNK N   1      30.435  51.375  57.852  0.00  0.00     0.217 HD
ENDBRANCH  10  35
TORSDOF 9
ENDMDL
MODEL 5
REMARK VINA RESULT:      -5.9     13.225     15.464
REMARK  9 active torsions:
REMARK  status: ('A' for Active; 'I' for Inactive)
REMARK    1  A    between atoms: C_3  and  O_4 
REMARK    2  A    between atoms: O_4  and  C_5 
REMARK    3  A    between atoms: C_8  and  O_9 
REMARK    4  A    between atoms: C_11  and  O_12 
REMARK    5  A    between atoms: C_14  and  O_15 
REMARK    6  A    between atoms: C_17  and  C_29 
REMARK    7  A    between atoms: C_21  and  O_22 
REMARK    8  A    between atoms: C_25  and  O_27 
REMARK    9  A    between atoms: C_32  and  O_33 
ROOT
HETATM    1  O   UNK N   1      29.123  39.091  54.024  0.00  0.00    -0.284 OA
HETATM    2  C   UNK N   1      29.302  39.488  55.161  0.00  0.00     0.223 A 
HETATM    3  C   UNK N   1      29.567  40.850  55.398  0.00  0.00     0.157 A 
HETATM    4  C   UNK N   1      29.753  41.285  56.724  0.00  0.00     0.124 A 
HETATM    5  O   UNK N   1      29.718  40.408  57.724  0.00  0.00    -0.306 OA
HETATM    6  C   UNK N   1      29.457  39.118  57.549  0.00  0.00     0.096 A 
HETATM    7  C   UNK N   1      29.235  38.597  56.255  0.00  0.00     0.084 A 
HETATM    8  C   UNK N   1      28.955  37.215  56.103  0.00  0.00     0.085 A 
HETATM    9  C   UNK N   1      28.891  36.391  57.238  0.00  0.00     0.074 A 
HETATM   10  C   UNK N   1      29.103  36.919  58.514  0.00  0.00     0.071 A 
HETATM   11  C   UNK N   1      29.390  38.281  58.666  0.00  0.00     0.075 A 
ENDROOT
BRANCH   3  12
HETATM   12  O   UNK N   1      29.696  41.731  54.370  0.00  0.00    -0.311 OA
BRANCH  12  13
HETATM   13  C   UNK N   1      28.608  42.411  53.843  0.00  0.00     0.297 C 
HETATM   14  O   UNK N   1      27.432  41.969  54.514  0.00  0.00    -0.356 OA
HETATM   15  C   UNK N   1      26.298  42.704  54.081  0.00  0.00     0.205 C 
HETATM   16  C   UNK N   1      26.000  42.426  52.595  0.00  0.00     0.173 C 
HETATM   17  C   UNK N   1      27.240  42.817  51.767  0.00  0.00     0.182 C 
HETATM   18  C   UNK N   1      28.502  42.123  52.328  0.00  0.00     0.205 C 
BRANCH  16  19
HETATM   19  O   UNK N   1      25.633  41.081  52.386  0.00  0.00    -0.391 OA
HETATM   20  H   UNK N   1      24.673  40.968  52.609  0.00  0.00     0.210 HD
ENDBRANCH  16  19
BRANCH  17  21
HETATM   21  O   UNK N   1      27.055  42.557  50.399  0.00  0.00    -0.390 OA
HETATM   22  H   UNK N   1      26.662  43.370  49.987  0.00  0.00     0.210 HD
ENDBRANCH  17  21
BRANCH  18  23
HETATM   23  O   UNK N   1      29.657  42.551  51.648  0.00  0.00    -0.388 OA
HETATM   24  H   UNK N   1      29.417  42.669  50.691  0.00  0.00     0.210 HD
ENDBRANCH  18  23
ENDBRANCH  12  13
ENDBRANCH   3  12
BRANCH   4  25
HETATM   25  C   UNK N   1      30.004  42.705  57.056  0.00  0.00     0.001 A 
HETATM   26  C   UNK N   1      28.952  43.554  57.443  0.00  0.00     0.017 A 
HETATM   27  C   UNK N   1      29.214  44.877  57.814  0.00  0.00     0.037 A 
HETATM   28  C   UNK N   1      30.526  45.373  57.772  0.00  0.00     0.065 A 
HETATM   29  C   UNK N   1      31.571  44.536  57.369  0.00  0.00     0.037 A 
HETATM   30  C   UNK N   1      31.315  43.204  57.032  0.00  0.00     0.017 A 
BRANCH  28  31
HETATM   31  O   UNK N   1      30.791  46.647  58.125  0.00  0.00    -0.361 OA
HETATM   32  H   UNK N   1      30.693  46.953  59.038  0.00  0.00     0.217 HD
ENDBRANCH  28  31
ENDBRANCH   4  25
BRANCH   8  33
HETATM   33  O   UNK N   1      28.745  36.682  54.880  0.00  0.00    -0.360 OA
HETATM   34  H   UNK N   1      29.431  36.184  54.413  0.00  0.00     0.217 HD
ENDBRANCH   8  33
BRANCH  10  35
HETATM   35  O   UNK N   1      29.025  36.110  59.590  0.00  0.00    -0.361 OA
HETATM   36  H   UNK N   1      28.947  35.149  59.499  0.00  0.00     0.217 HD
ENDBRANCH  10  35
TORSDOF 9
ENDMDL
MODEL 6
REMARK VINA RESULT:      -5.8      1.926      6.420
REMARK  9 active torsions:
REMARK  status: ('A' for Active; 'I' for Inactive)
REMARK    1  A    between atoms: C_3  and  O_4 
REMARK    2  A    between atoms: O_4  and  C_5 
REMARK    3  A    between atoms: C_8  and  O_9 
REMARK    4  A    between atoms: C_11  and  O_12 
REMARK    5  A    between atoms: C_14  and  O_15 
REMARK    6  A    between atoms: C_17  and  C_29 
REMARK    7  A    between atoms: C_21  and  O_22 
REMARK    8  A    between atoms: C_25  and  O_27 
REMARK    9  A    between atoms: C_32  and  O_33 
ROOT
HETATM    1  O   UNK N   1      40.666  48.363  48.593  0.00  0.00    -0.284 OA
HETATM    2  C   UNK N   1      40.594  47.857  47.487  0.00  0.00     0.223 A 
HETATM    3  C   UNK N   1      41.242  46.635  47.230  0.00  0.00     0.157 A 
HETATM    4  C   UNK N   1      41.129  46.064  45.947  0.00  0.00     0.124 A 
HETATM    5  O   UNK N   1      40.453  46.699  44.993  0.00  0.00    -0.306 OA
HETATM    6  C   UNK N   1      39.814  47.845  45.196  0.00  0.00     0.096 A 
HETATM    7  C   UNK N   1      39.854  48.479  46.458  0.00  0.00     0.084 A 
HETATM    8  C   UNK N   1      39.158  49.701  46.642  0.00  0.00     0.085 A 
HETATM    9  C   UNK N   1      38.432  50.254  45.575  0.00  0.00     0.074 A 
HETATM   10  C   UNK N   1      38.392  49.613  44.333  0.00  0.00     0.071 A 
HETATM   11  C   UNK N   1      39.086  48.412  44.146  0.00  0.00     0.075 A 
ENDROOT
BRANCH   3  12
HETATM   12  O   UNK N   1      42.010  46.032  48.176  0.00  0.00    -0.311 OA
BRANCH  12  13
HETATM   13  C   UNK N   1      41.587  45.892  49.489  0.00  0.00     0.297 C 
HETATM   14  O   UNK N   1      42.732  45.701  50.314  0.00  0.00    -0.356 OA
HETATM   15  C   UNK N   1      42.365  45.649  51.683  0.00  0.00     0.205 C 
HETATM   16  C   UNK N   1      41.493  44.411  51.970  0.00  0.00     0.173 C 
HETATM   17  C   UNK N   1      40.237  44.482  51.080  0.00  0.00     0.182 C 
HETATM   18  C   UNK N   1      40.636  44.678  49.600  0.00  0.00     0.205 C 
BRANCH  16  19
HETATM   19  O   UNK N   1      42.214  43.217  51.767  0.00  0.00    -0.391 OA
HETATM   20  H   UNK N   1      43.164  43.364  52.009  0.00  0.00     0.210 HD
ENDBRANCH  16  19
BRANCH  17  21
HETATM   21  O   UNK N   1      39.408  43.362  51.262  0.00  0.00    -0.390 OA
HETATM   22  H   UNK N   1      38.466  43.669  51.196  0.00  0.00     0.210 HD
ENDBRANCH  17  21
BRANCH  18  23
HETATM   23  O   UNK N   1      39.499  44.848  48.789  0.00  0.00    -0.388 OA
HETATM   24  H   UNK N   1      38.740  45.092  49.381  0.00  0.00     0.210 HD
ENDBRANCH  18  23
ENDBRANCH  12  13
ENDBRANCH   3  12
BRANCH   4  25
HETATM   25  C   UNK N   1      41.754  44.766  45.608  0.00  0.00     0.001 A 
HETATM   26  C   UNK N   1      42.351  44.558  44.351  0.00  0.00     0.017 A 
HETATM   27  C   UNK N   1      42.993  43.347  44.069  0.00  0.00     0.037 A 
HETATM   28  C   UNK N   1      43.017  42.323  45.028  0.00  0.00     0.065 A 
HETATM   29  C   UNK N   1      42.408  42.522  46.270  0.00  0.00     0.037 A 
HETATM   30  C   UNK N   1      41.797  43.743  46.567  0.00  0.00     0.017 A 
BRANCH  28  31
HETATM   31  O   UNK N   1      43.631  41.152  44.767  0.00  0.00    -0.361 OA
HETATM   32  H   UNK N   1      44.438  41.107  44.234  0.00  0.00     0.217 HD
ENDBRANCH  28  31
ENDBRANCH   4  25
BRANCH   8  33
HETATM   33  O   UNK N   1      39.182  50.337  47.832  0.00  0.00    -0.360 OA
HETATM   34  H   UNK N   1      39.983  50.762  48.170  0.00  0.00     0.217 HD
ENDBRANCH   8  33
BRANCH  10  35
HETATM   35  O   UNK N   1      37.678  50.157  43.327  0.00  0.00    -0.361 OA
HETATM   36  H   UNK N   1      37.070  50.896  43.477  0.00  0.00     0.217 HD
ENDBRANCH  10  35
TORSDOF 9
ENDMDL
MODEL 7
REMARK VINA RESULT:      -5.7     13.648     16.246
REMARK  9 active torsions:
REMARK  status: ('A' for Active; 'I' for Inactive)
REMARK    1  A    between atoms: C_3  and  O_4 
REMARK    2  A    between atoms: O_4  and  C_5 
REMARK    3  A    between atoms: C_8  and  O_9 
REMARK    4  A    between atoms: C_11  and  O_12 
REMARK    5  A    between atoms: C_14  and  O_15 
REMARK    6  A    between atoms: C_17  and  C_29 
REMARK    7  A    between atoms: C_21  and  O_22 
REMARK    8  A    between atoms: C_25  and  O_27 
REMARK    9  A    between atoms: C_32  and  O_33 
ROOT
HETATM    1  O   UNK N   1      26.800  45.524  57.498  0.00  0.00    -0.284 OA
HETATM    2  C   UNK N   1      27.910  45.873  57.854  0.00  0.00     0.223 A 
HETATM    3  C   UNK N   1      28.875  44.909  58.197  0.00  0.00     0.157 A 
HETATM    4  C   UNK N   1      30.158  45.340  58.589  0.00  0.00     0.124 A 
HETATM    5  O   UNK N   1      30.426  46.640  58.670  0.00  0.00    -0.306 OA
HETATM    6  C   UNK N   1      29.552  47.584  58.343  0.00  0.00     0.096 A 
HETATM    7  C   UNK N   1      28.249  47.243  57.916  0.00  0.00     0.084 A 
HETATM    8  C   UNK N   1      27.341  48.276  57.570  0.00  0.00     0.085 A 
HETATM    9  C   UNK N   1      27.752  49.616  57.645  0.00  0.00     0.074 A 
HETATM   10  C   UNK N   1      29.047  49.941  58.058  0.00  0.00     0.071 A 
HETATM   11  C   UNK N   1      29.942  48.925  58.411  0.00  0.00     0.075 A 
ENDROOT
BRANCH   3  12
HETATM   12  O   UNK N   1      28.574  43.582  58.204  0.00  0.00    -0.311 OA
BRANCH  12  13
HETATM   13  C   UNK N   1      28.889  42.750  57.140  0.00  0.00     0.297 C 
HETATM   14  O   UNK N   1      27.862  42.864  56.159  0.00  0.00    -0.356 OA
HETATM   15  C   UNK N   1      28.182  42.106  55.004  0.00  0.00     0.205 C 
HETATM   16  C   UNK N   1      28.214  40.600  55.329  0.00  0.00     0.173 C 
HETATM   17  C   UNK N   1      29.263  40.361  56.433  0.00  0.00     0.182 C 
HETATM   18  C   UNK N   1      28.995  41.290  57.639  0.00  0.00     0.205 C 
BRANCH  16  19
HETATM   19  O   UNK N   1      26.941  40.126  55.703  0.00  0.00    -0.391 OA
HETATM   20  H   UNK N   1      26.862  39.171  55.451  0.00  0.00     0.210 HD
ENDBRANCH  16  19
BRANCH  17  21
HETATM   21  O   UNK N   1      29.323  39.009  56.809  0.00  0.00    -0.390 OA
HETATM   22  H   UNK N   1      28.651  38.515  56.271  0.00  0.00     0.210 HD
ENDBRANCH  17  21
BRANCH  18  23
HETATM   23  O   UNK N   1      30.003  41.158  58.611  0.00  0.00    -0.388 OA
HETATM   24  H   UNK N   1      30.674  40.514  58.264  0.00  0.00     0.210 HD
ENDBRANCH  18  23
ENDBRANCH  12  13
ENDBRANCH   3  12
BRANCH   4  25
HETATM   25  C   UNK N   1      31.235  44.386  58.934  0.00  0.00     0.001 A 
HETATM   26  C   UNK N   1      32.129  43.919  57.953  0.00  0.00     0.017 A 
HETATM   27  C   UNK N   1      33.180  43.067  58.307  0.00  0.00     0.037 A 
HETATM   28  C   UNK N   1      33.329  42.649  59.638  0.00  0.00     0.065 A 
HETATM   29  C   UNK N   1      32.430  43.096  60.611  0.00  0.00     0.037 A 
HETATM   30  C   UNK N   1      31.401  43.976  60.266  0.00  0.00     0.017 A 
BRANCH  28  31
HETATM   31  O   UNK N   1      34.338  41.826  59.991  0.00  0.00    -0.361 OA
HETATM   32  H   UNK N   1      34.220  41.132  60.655  0.00  0.00     0.217 HD
ENDBRANCH  28  31
ENDBRANCH   4  25
BRANCH   8  33
HETATM   33  O   UNK N   1      26.085  47.985  57.166  0.00  0.00    -0.360 OA
HETATM   34  H   UNK N   1      25.358  48.616  57.261  0.00  0.00     0.217 HD
ENDBRANCH   8  33
BRANCH  10  35
HETATM   35  O   UNK N   1      29.422  51.235  58.110  0.00  0.00    -0.361 OA
HETATM   36  H   UNK N   1      28.799  51.937  58.348  0.00  0.00     0.217 HD
ENDBRANCH  10  35
TORSDOF 9
ENDMDL
MODEL 8
REMARK VINA RESULT:      -5.5     13.673     16.005
REMARK  9 active torsions:
REMARK  status: ('A' for Active; 'I' for Inactive)
REMARK    1  A    between atoms: C_3  and  O_4 
REMARK    2  A    between atoms: O_4  and  C_5 
REMARK    3  A    between atoms: C_8  and  O_9 
REMARK    4  A    between atoms: C_11  and  O_12 
REMARK    5  A    between atoms: C_14  and  O_15 
REMARK    6  A    between atoms: C_17  and  C_29 
REMARK    7  A    between atoms: C_21  and  O_22 
REMARK    8  A    between atoms: C_25  and  O_27 
REMARK    9  A    between atoms: C_32  and  O_33 
ROOT
HETATM    1  O   UNK N   1      29.631  39.262  57.729  0.00  0.00    -0.284 OA
HETATM    2  C   UNK N   1      29.573  40.395  57.285  0.00  0.00     0.223 A 
HETATM    3  C   UNK N   1      29.152  40.611  55.960  0.00  0.00     0.157 A 
HETATM    4  C   UNK N   1      29.078  41.932  55.478  0.00  0.00     0.124 A 
HETATM    5  O   UNK N   1      29.443  42.947  56.258  0.00  0.00    -0.306 OA
HETATM    6  C   UNK N   1      29.832  42.791  57.518  0.00  0.00     0.096 A 
HETATM    7  C   UNK N   1      29.914  41.502  58.092  0.00  0.00     0.084 A 
HETATM    8  C   UNK N   1      30.331  41.371  59.441  0.00  0.00     0.085 A 
HETATM    9  C   UNK N   1      30.642  42.519  60.187  0.00  0.00     0.074 A 
HETATM   10  C   UNK N   1      30.547  43.789  59.611  0.00  0.00     0.071 A 
HETATM   11  C   UNK N   1      30.147  43.921  58.277  0.00  0.00     0.075 A 
ENDROOT
BRANCH   3  12
HETATM   12  O   UNK N   1      28.868  39.570  55.132  0.00  0.00    -0.311 OA
BRANCH  12  13
HETATM   13  C   UNK N   1      27.577  39.091  54.968  0.00  0.00     0.297 C 
HETATM   14  O   UNK N   1      27.306  38.157  56.009  0.00  0.00    -0.356 OA
HETATM   15  C   UNK N   1      25.963  37.707  55.946  0.00  0.00     0.205 C 
HETATM   16  C   UNK N   1      25.714  36.902  54.656  0.00  0.00     0.173 C 
HETATM   17  C   UNK N   1      26.033  37.805  53.448  0.00  0.00     0.182 C 
HETATM   18  C   UNK N   1      27.450  38.408  53.587  0.00  0.00     0.205 C 
BRANCH  16  19
HETATM   19  O   UNK N   1      26.471  35.713  54.638  0.00  0.00    -0.391 OA
HETATM   20  H   UNK N   1      25.858  34.936  54.702  0.00  0.00     0.210 HD
ENDBRANCH  16  19
BRANCH  17  21
HETATM   21  O   UNK N   1      25.864  37.124  52.231  0.00  0.00    -0.390 OA
HETATM   22  H   UNK N   1      26.715  37.191  51.726  0.00  0.00     0.210 HD
ENDBRANCH  17  21
BRANCH  18  23
HETATM   23  O   UNK N   1      27.716  39.314  52.545  0.00  0.00    -0.388 OA
HETATM   24  H   UNK N   1      28.341  40.002  52.896  0.00  0.00     0.210 HD
ENDBRANCH  18  23
ENDBRANCH  12  13
ENDBRANCH   3  12
BRANCH   4  25
HETATM   25  C   UNK N   1      28.614  42.243  54.108  0.00  0.00     0.001 A 
HETATM   26  C   UNK N   1      29.488  42.150  53.009  0.00  0.00     0.017 A 
HETATM   27  C   UNK N   1      29.018  42.387  51.714  0.00  0.00     0.037 A 
HETATM   28  C   UNK N   1      27.678  42.748  51.506  0.00  0.00     0.065 A 
HETATM   29  C   UNK N   1      26.813  42.860  52.598  0.00  0.00     0.037 A 
HETATM   30  C   UNK N   1      27.272  42.590  53.890  0.00  0.00     0.017 A 
BRANCH  28  31
HETATM   31  O   UNK N   1      27.213  42.980  50.262  0.00  0.00    -0.361 OA
HETATM   32  H   UNK N   1      26.265  43.029  50.073  0.00  0.00     0.217 HD
ENDBRANCH  28  31
ENDBRANCH   4  25
BRANCH   8  33
HETATM   33  O   UNK N   1      30.427  40.154  60.019  0.00  0.00    -0.360 OA
HETATM   34  H   UNK N   1      31.268  39.812  60.356  0.00  0.00     0.217 HD
ENDBRANCH   8  33
BRANCH  10  35
HETATM   35  O   UNK N   1      30.840  44.878  60.351  0.00  0.00    -0.361 OA
HETATM   36  H   UNK N   1      30.260  45.178  61.066  0.00  0.00     0.217 HD
ENDBRANCH  10  35
TORSDOF 9
ENDMDL
MODEL 9
REMARK VINA RESULT:      -5.4     13.838     16.618
REMARK  9 active torsions:
REMARK  status: ('A' for Active; 'I' for Inactive)
REMARK    1  A    between atoms: C_3  and  O_4 
REMARK    2  A    between atoms: O_4  and  C_5 
REMARK    3  A    between atoms: C_8  and  O_9 
REMARK    4  A    between atoms: C_11  and  O_12 
REMARK    5  A    between atoms: C_14  and  O_15 
REMARK    6  A    between atoms: C_17  and  C_29 
REMARK    7  A    between atoms: C_21  and  O_22 
REMARK    8  A    between atoms: C_25  and  O_27 
REMARK    9  A    between atoms: C_32  and  O_33 
ROOT
HETATM    1  O   UNK N   1      50.279  50.846  59.086  0.00  0.00    -0.284 OA
HETATM    2  C   UNK N   1      49.878  51.984  58.923  0.00  0.00     0.223 A 
HETATM    3  C   UNK N   1      48.960  52.543  59.830  0.00  0.00     0.157 A 
HETATM    4  C   UNK N   1      48.526  53.868  59.628  0.00  0.00     0.124 A 
HETATM    5  O   UNK N   1      48.953  54.554  58.571  0.00  0.00    -0.306 OA
HETATM    6  C   UNK N   1      49.831  54.072  57.699  0.00  0.00     0.096 A 
HETATM    7  C   UNK N   1      50.337  52.760  57.836  0.00  0.00     0.084 A 
HETATM    8  C   UNK N   1      51.276  52.277  56.889  0.00  0.00     0.085 A 
HETATM    9  C   UNK N   1      51.696  53.111  55.841  0.00  0.00     0.074 A 
HETATM   10  C   UNK N   1      51.195  54.410  55.721  0.00  0.00     0.071 A 
HETATM   11  C   UNK N   1      50.261  54.886  56.647  0.00  0.00     0.075 A 
ENDROOT
BRANCH   3  12
HETATM   12  O   UNK N   1      48.450  51.813  60.858  0.00  0.00    -0.311 OA
BRANCH  12  13
HETATM   13  C   UNK N   1      47.208  51.202  60.782  0.00  0.00     0.297 C 
HETATM   14  O   UNK N   1      46.409  51.668  61.866  0.00  0.00    -0.356 OA
HETATM   15  C   UNK N   1      45.092  51.148  61.782  0.00  0.00     0.205 C 
HETATM   16  C   UNK N   1      45.095  49.617  61.959  0.00  0.00     0.173 C 
HETATM   17  C   UNK N   1      45.985  49.001  60.861  0.00  0.00     0.182 C 
HETATM   18  C   UNK N   1      47.380  49.667  60.863  0.00  0.00     0.205 C 
BRANCH  16  19
HETATM   19  O   UNK N   1      45.523  49.248  63.250  0.00  0.00    -0.391 OA
HETATM   20  H   UNK N   1      44.823  48.693  63.679  0.00  0.00     0.210 HD
ENDBRANCH  16  19
BRANCH  17  21
HETATM   21  O   UNK N   1      46.065  47.603  60.981  0.00  0.00    -0.390 OA
HETATM   22  H   UNK N   1      45.140  47.253  61.063  0.00  0.00     0.210 HD
ENDBRANCH  17  21
BRANCH  18  23
HETATM   23  O   UNK N   1      48.168  49.188  59.801  0.00  0.00    -0.388 OA
HETATM   24  H   UNK N   1      47.816  48.297  59.541  0.00  0.00     0.210 HD
ENDBRANCH  18  23
ENDBRANCH  12  13
ENDBRANCH   3  12
BRANCH   4  25
HETATM   25  C   UNK N   1      47.586  54.537  60.555  0.00  0.00     0.001 A 
HETATM   26  C   UNK N   1      48.028  55.051  61.787  0.00  0.00     0.017 A 
HETATM   27  C   UNK N   1      47.140  55.735  62.624  0.00  0.00     0.037 A 
HETATM   28  C   UNK N   1      45.796  55.885  62.251  0.00  0.00     0.065 A 
HETATM   29  C   UNK N   1      45.350  55.357  61.036  0.00  0.00     0.037 A 
HETATM   30  C   UNK N   1      46.243  54.704  60.183  0.00  0.00     0.017 A 
BRANCH  28  31
HETATM   31  O   UNK N   1      44.930  56.541  63.050  0.00  0.00    -0.361 OA
HETATM   32  H   UNK N   1      45.230  57.197  63.696  0.00  0.00     0.217 HD
ENDBRANCH  28  31
ENDBRANCH   4  25
BRANCH   8  33
HETATM   33  O   UNK N   1      51.774  51.026  56.986  0.00  0.00    -0.360 OA
HETATM   34  H   UNK N   1      51.287  50.313  57.423  0.00  0.00     0.217 HD
ENDBRANCH   8  33
BRANCH  10  35
HETATM   35  O   UNK N   1      51.623  55.196  54.711  0.00  0.00    -0.361 OA
HETATM   36  H   UNK N   1      52.566  55.327  54.533  0.00  0.00     0.217 HD
ENDBRANCH  10  35
TORSDOF 9
ENDMDL
