MODEL 1
REMARK VINA RESULT:      -5.0      0.000      0.000
REMARK  9 active torsions:
REMARK  status: ('A' for Active; 'I' for Inactive)
REMARK    1  A    between atoms: C_3  and  O_4 
REMARK    2  A    between atoms: O_4  and  C_5 
REMARK    3  A    between atoms: C_8  and  O_9 
REMARK    4  A    between atoms: C_11  and  O_12 
REMARK    5  A    between atoms: C_14  and  O_15 
REMARK    6  A    between atoms: C_18  and  C_30 
REMARK    7  A    between atoms: C_22  and  O_23 
REMARK    8  A    between atoms: C_26  and  O_28 
REMARK    9  A    between atoms: C_33  and  O_34 
ROOT
HETATM    1  O   UNK N   1      31.055  47.341  57.173  0.00  0.00    -0.284 OA
HETATM    2  C   UNK N   1      29.899  47.302  57.559  0.00  0.00     0.223 A 
HETATM    3  C   UNK N   1      29.450  46.219  58.342  0.00  0.00     0.157 A 
HETATM    4  C   UNK N   1      28.119  46.221  58.798  0.00  0.00     0.124 A 
HETATM    5  O   UNK N   1      27.290  47.197  58.441  0.00  0.00    -0.306 OA
HETATM    6  C   UNK N   1      27.666  48.232  57.702  0.00  0.00     0.096 A 
HETATM    7  C   UNK N   1      28.995  48.339  57.234  0.00  0.00     0.084 A 
HETATM    8  C   UNK N   1      29.364  49.465  56.452  0.00  0.00     0.085 A 
HETATM    9  C   UNK N   1      28.408  50.452  56.162  0.00  0.00     0.074 A 
HETATM   10  C   UNK N   1      27.099  50.336  56.633  0.00  0.00     0.071 A 
HETATM   11  C   UNK N   1      26.730  49.225  57.401  0.00  0.00     0.075 A 
ENDROOT
BRANCH   3  12
HETATM   12  O   UNK N   1      30.235  45.139  58.608  0.00  0.00    -0.311 OA
BRANCH  12  13
HETATM   13  C   UNK N   1      30.511  44.144  57.672  0.00  0.00     0.298 C 
HETATM   14  O   UNK N   1      29.892  42.925  58.064  0.00  0.00    -0.351 OA
HETATM   15  C   UNK N   1      30.395  42.447  59.304  0.00  0.00     0.152 C 
HETATM   16  C   UNK N   1      31.895  42.095  59.183  0.00  0.00     0.178 C 
HETATM   17  C   UNK N   1      29.567  41.229  59.714  0.00  0.00     0.042 C 
HETATM   18  C   UNK N   1      32.658  43.363  58.737  0.00  0.00     0.183 C 
HETATM   19  C   UNK N   1      32.029  43.946  57.456  0.00  0.00     0.205 C 
BRANCH  16  20
HETATM   20  O   UNK N   1      32.383  41.651  60.423  0.00  0.00    -0.390 OA
HETATM   21  H   UNK N   1      32.251  42.395  61.067  0.00  0.00     0.210 HD
ENDBRANCH  16  20
BRANCH  18  22
HETATM   22  O   UNK N   1      34.030  43.115  58.566  0.00  0.00    -0.390 OA
HETATM   23  H   UNK N   1      34.354  43.696  57.828  0.00  0.00     0.210 HD
ENDBRANCH  18  22
BRANCH  19  24
HETATM   24  O   UNK N   1      32.275  43.111  56.346  0.00  0.00    -0.388 OA
HETATM   25  H   UNK N   1      32.723  43.637  55.635  0.00  0.00     0.210 HD
ENDBRANCH  19  24
ENDBRANCH  12  13
ENDBRANCH   3  12
BRANCH   4  26
HETATM   26  C   UNK N   1      27.599  45.141  59.661  0.00  0.00     0.001 A 
HETATM   27  C   UNK N   1      26.796  44.119  59.124  0.00  0.00     0.017 A 
HETATM   28  C   UNK N   1      26.346  43.076  59.939  0.00  0.00     0.037 A 
HETATM   29  C   UNK N   1      26.673  43.057  61.303  0.00  0.00     0.065 A 
HETATM   30  C   UNK N   1      27.461  44.080  61.842  0.00  0.00     0.037 A 
HETATM   31  C   UNK N   1      27.938  45.107  61.022  0.00  0.00     0.017 A 
BRANCH  29  32
HETATM   32  O   UNK N   1      26.242  42.058  62.098  0.00  0.00    -0.361 OA
HETATM   33  H   UNK N   1      26.847  41.391  62.453  0.00  0.00     0.217 HD
ENDBRANCH  29  32
ENDBRANCH   4  26
BRANCH   8  34
HETATM   34  O   UNK N   1      30.624  49.598  55.984  0.00  0.00    -0.360 OA
HETATM   35  H   UNK N   1      31.102  48.857  55.585  0.00  0.00     0.217 HD
ENDBRANCH   8  34
BRANCH  10  36
HETATM   36  O   UNK N   1      26.199  51.298  56.343  0.00  0.00    -0.361 OA
HETATM   37  H   UNK N   1      26.342  52.221  56.595  0.00  0.00     0.217 HD
ENDBRANCH  10  36
TORSDOF 9
ENDMDL
MODEL 2
REMARK VINA RESULT:      -5.0      2.132      2.654
REMARK  9 active torsions:
REMARK  status: ('A' for Active; 'I' for Inactive)
REMARK    1  A    between atoms: C_3  and  O_4 
REMARK    2  A    between atoms: O_4  and  C_5 
REMARK    3  A    between atoms: C_8  and  O_9 
REMARK    4  A    between atoms: C_11  and  O_12 
REMARK    5  A    between atoms: C_14  and  O_15 
REMARK    6  A    between atoms: C_18  and  C_30 
REMARK    7  A    between atoms: C_22  and  O_23 
REMARK    8  A    between atoms: C_26  and  O_28 
REMARK    9  A    between atoms: C_33  and  O_34 
ROOT
HETATM    1  O   UNK N   1      30.537  47.523  56.971  0.00  0.00    -0.284 OA
HETATM    2  C   UNK N   1      29.960  47.762  58.018  0.00  0.00     0.223 A 
HETATM    3  C   UNK N   1      30.153  46.928  59.138  0.00  0.00     0.157 A 
HETATM    4  C   UNK N   1      29.498  47.249  60.341  0.00  0.00     0.124 A 
HETATM    5  O   UNK N   1      28.666  48.284  60.395  0.00  0.00    -0.306 OA
HETATM    6  C   UNK N   1      28.449  49.092  59.365  0.00  0.00     0.096 A 
HETATM    7  C   UNK N   1      29.096  48.874  58.128  0.00  0.00     0.084 A 
HETATM    8  C   UNK N   1      28.847  49.764  57.051  0.00  0.00     0.085 A 
HETATM    9  C   UNK N   1      27.967  50.845  57.233  0.00  0.00     0.074 A 
HETATM   10  C   UNK N   1      27.336  51.050  58.460  0.00  0.00     0.071 A 
HETATM   11  C   UNK N   1      27.577  50.173  59.524  0.00  0.00     0.075 A 
ENDROOT
BRANCH   3  12
HETATM   12  O   UNK N   1      30.890  45.784  59.076  0.00  0.00    -0.311 OA
BRANCH  12  13
HETATM   13  C   UNK N   1      30.334  44.527  58.848  0.00  0.00     0.298 C 
HETATM   14  O   UNK N   1      30.801  43.606  59.827  0.00  0.00    -0.351 OA
HETATM   15  C   UNK N   1      32.210  43.430  59.763  0.00  0.00     0.152 C 
HETATM   16  C   UNK N   1      32.618  42.796  58.414  0.00  0.00     0.178 C 
HETATM   17  C   UNK N   1      32.631  42.553  60.942  0.00  0.00     0.042 C 
HETATM   18  C   UNK N   1      32.132  43.721  57.276  0.00  0.00     0.183 C 
HETATM   19  C   UNK N   1      30.624  44.007  57.422  0.00  0.00     0.205 C 
BRANCH  16  20
HETATM   20  O   UNK N   1      34.014  42.654  58.356  0.00  0.00    -0.390 OA
HETATM   21  H   UNK N   1      34.400  43.564  58.455  0.00  0.00     0.210 HD
ENDBRANCH  16  20
BRANCH  18  22
HETATM   22  O   UNK N   1      32.432  43.194  56.008  0.00  0.00    -0.390 OA
HETATM   23  H   UNK N   1      33.390  42.930  56.008  0.00  0.00     0.210 HD
ENDBRANCH  18  22
BRANCH  19  24
HETATM   24  O   UNK N   1      29.861  42.854  57.141  0.00  0.00    -0.388 OA
HETATM   25  H   UNK N   1      29.129  43.091  56.516  0.00  0.00     0.210 HD
ENDBRANCH  19  24
ENDBRANCH  12  13
ENDBRANCH   3  12
BRANCH   4  26
HETATM   26  C   UNK N   1      29.695  46.445  61.564  0.00  0.00     0.001 A 
HETATM   27  C   UNK N   1      28.689  45.574  62.018  0.00  0.00     0.017 A 
HETATM   28  C   UNK N   1      28.901  44.783  63.151  0.00  0.00     0.037 A 
HETATM   29  C   UNK N   1      30.111  44.873  63.856  0.00  0.00     0.065 A 
HETATM   30  C   UNK N   1      31.108  45.749  63.414  0.00  0.00     0.037 A 
HETATM   31  C   UNK N   1      30.910  46.518  62.263  0.00  0.00     0.017 A 
BRANCH  29  32
HETATM   32  O   UNK N   1      30.325  44.117  64.951  0.00  0.00    -0.361 OA
HETATM   33  H   UNK N   1      29.645  43.524  65.302  0.00  0.00     0.217 HD
ENDBRANCH  29  32
ENDBRANCH   4  26
BRANCH   8  34
HETATM   34  O   UNK N   1      29.444  49.584  55.853  0.00  0.00    -0.360 OA
HETATM   35  H   UNK N   1      29.940  50.292  55.418  0.00  0.00     0.217 HD
ENDBRANCH   8  34
BRANCH  10  36
HETATM   36  O   UNK N   1      26.497  52.096  58.612  0.00  0.00    -0.361 OA
HETATM   37  H   UNK N   1      26.207  52.629  57.857  0.00  0.00     0.217 HD
ENDBRANCH  10  36
TORSDOF 9
ENDMDL
MODEL 3
REMARK VINA RESULT:      -4.9      2.048      6.756
REMARK  9 active torsions:
REMARK  status: ('A' for Active; 'I' for Inactive)
REMARK    1  A    between atoms: C_3  and  O_4 
REMARK    2  A    between atoms: O_4  and  C_5 
REMARK    3  A    between atoms: C_8  and  O_9 
REMARK    4  A    between atoms: C_11  and  O_12 
REMARK    5  A    between atoms: C_14  and  O_15 
REMARK    6  A    between atoms: C_18  and  C_30 
REMARK    7  A    between atoms: C_22  and  O_23 
REMARK    8  A    between atoms: C_26  and  O_28 
REMARK    9  A    between atoms: C_33  and  O_34 
ROOT
HETATM    1  O   UNK N   1      31.332  45.873  57.259  0.00  0.00    -0.284 OA
HETATM    2  C   UNK N   1      30.627  45.609  58.218  0.00  0.00     0.223 A 
HETATM    3  C   UNK N   1      29.514  46.419  58.523  0.00  0.00     0.157 A 
HETATM    4  C   UNK N   1      28.703  46.068  59.617  0.00  0.00     0.124 A 
HETATM    5  O   UNK N   1      29.022  45.029  60.382  0.00  0.00    -0.306 OA
HETATM    6  C   UNK N   1      30.063  44.243  60.138  0.00  0.00     0.096 A 
HETATM    7  C   UNK N   1      30.910  44.491  59.034  0.00  0.00     0.084 A 
HETATM    8  C   UNK N   1      32.009  43.624  58.798  0.00  0.00     0.085 A 
HETATM    9  C   UNK N   1      32.232  42.536  59.659  0.00  0.00     0.074 A 
HETATM   10  C   UNK N   1      31.386  42.301  60.744  0.00  0.00     0.071 A 
HETATM   11  C   UNK N   1      30.303  43.156  60.982  0.00  0.00     0.075 A 
ENDROOT
BRANCH   3  12
HETATM   12  O   UNK N   1      29.241  47.566  57.842  0.00  0.00    -0.311 OA
BRANCH  12  13
HETATM   13  C   UNK N   1      29.979  48.739  57.991  0.00  0.00     0.298 C 
HETATM   14  O   UNK N   1      29.235  49.687  58.746  0.00  0.00    -0.351 OA
HETATM   15  C   UNK N   1      28.031  50.063  58.091  0.00  0.00     0.152 C 
HETATM   16  C   UNK N   1      28.339  50.786  56.761  0.00  0.00     0.178 C 
HETATM   17  C   UNK N   1      27.234  50.956  59.041  0.00  0.00     0.042 C 
HETATM   18  C   UNK N   1      29.170  49.835  55.871  0.00  0.00     0.183 C 
HETATM   19  C   UNK N   1      30.414  49.335  56.633  0.00  0.00     0.205 C 
BRANCH  16  20
HETATM   20  O   UNK N   1      27.140  51.125  56.113  0.00  0.00    -0.390 OA
HETATM   21  H   UNK N   1      26.650  51.742  56.719  0.00  0.00     0.210 HD
ENDBRANCH  16  20
BRANCH  18  22
HETATM   22  O   UNK N   1      29.525  50.436  54.651  0.00  0.00    -0.390 OA
HETATM   23  H   UNK N   1      28.702  50.822  54.252  0.00  0.00     0.210 HD
ENDBRANCH  18  22
BRANCH  19  24
HETATM   24  O   UNK N   1      31.348  50.376  56.816  0.00  0.00    -0.388 OA
HETATM   25  H   UNK N   1      32.265  50.015  56.709  0.00  0.00     0.210 HD
ENDBRANCH  19  24
ENDBRANCH  12  13
ENDBRANCH   3  12
BRANCH   4  26
HETATM   26  C   UNK N   1      27.495  46.846  59.961  0.00  0.00     0.001 A 
HETATM   27  C   UNK N   1      26.337  46.757  59.168  0.00  0.00     0.017 A 
HETATM   28  C   UNK N   1      25.183  47.460  59.526  0.00  0.00     0.037 A 
HETATM   29  C   UNK N   1      25.183  48.279  60.665  0.00  0.00     0.065 A 
HETATM   30  C   UNK N   1      26.339  48.380  61.447  0.00  0.00     0.037 A 
HETATM   31  C   UNK N   1      27.483  47.652  61.109  0.00  0.00     0.017 A 
BRANCH  29  32
HETATM   32  O   UNK N   1      24.077  48.965  61.018  0.00  0.00    -0.361 OA
HETATM   33  H   UNK N   1      24.075  49.580  61.765  0.00  0.00     0.217 HD
ENDBRANCH  29  32
ENDBRANCH   4  26
BRANCH   8  34
HETATM   34  O   UNK N   1      32.843  43.833  57.757  0.00  0.00    -0.360 OA
HETATM   35  H   UNK N   1      33.805  43.804  57.858  0.00  0.00     0.217 HD
ENDBRANCH   8  34
BRANCH  10  36
HETATM   36  O   UNK N   1      31.619  41.249  61.555  0.00  0.00    -0.361 OA
HETATM   37  H   UNK N   1      30.968  40.543  61.674  0.00  0.00     0.217 HD
ENDBRANCH  10  36
TORSDOF 9
ENDMDL
MODEL 4
REMARK VINA RESULT:      -4.8     14.038     17.522
REMARK  9 active torsions:
REMARK  status: ('A' for Active; 'I' for Inactive)
REMARK    1  A    between atoms: C_3  and  O_4 
REMARK    2  A    between atoms: O_4  and  C_5 
REMARK    3  A    between atoms: C_8  and  O_9 
REMARK    4  A    between atoms: C_11  and  O_12 
REMARK    5  A    between atoms: C_14  and  O_15 
REMARK    6  A    between atoms: C_18  and  C_30 
REMARK    7  A    between atoms: C_22  and  O_23 
REMARK    8  A    between atoms: C_26  and  O_28 
REMARK    9  A    between atoms: C_33  and  O_34 
ROOT
HETATM    1  O   UNK N   1      40.651  45.494  45.188  0.00  0.00    -0.284 OA
HETATM    2  C   UNK N   1      41.198  44.778  46.009  0.00  0.00     0.223 A 
HETATM    3  C   UNK N   1      40.859  44.880  47.374  0.00  0.00     0.157 A 
HETATM    4  C   UNK N   1      41.484  44.017  48.292  0.00  0.00     0.124 A 
HETATM    5  O   UNK N   1      42.421  43.168  47.882  0.00  0.00    -0.306 OA
HETATM    6  C   UNK N   1      42.777  43.041  46.610  0.00  0.00     0.096 A 
HETATM    7  C   UNK N   1      42.172  43.835  45.610  0.00  0.00     0.084 A 
HETATM    8  C   UNK N   1      42.571  43.667  44.259  0.00  0.00     0.085 A 
HETATM    9  C   UNK N   1      43.553  42.714  43.938  0.00  0.00     0.074 A 
HETATM   10  C   UNK N   1      44.141  41.935  44.936  0.00  0.00     0.071 A 
HETATM   11  C   UNK N   1      43.752  42.100  46.270  0.00  0.00     0.075 A 
ENDROOT
BRANCH   3  12
HETATM   12  O   UNK N   1      40.005  45.832  47.843  0.00  0.00    -0.311 OA
BRANCH  12  13
HETATM   13  C   UNK N   1      40.431  46.982  48.506  0.00  0.00     0.298 C 
HETATM   14  O   UNK N   1      39.675  48.103  48.063  0.00  0.00    -0.351 OA
HETATM   15  C   UNK N   1      39.863  48.359  46.678  0.00  0.00     0.152 C 
HETATM   16  C   UNK N   1      41.331  48.745  46.389  0.00  0.00     0.178 C 
HETATM   17  C   UNK N   1      38.901  49.472  46.266  0.00  0.00     0.042 C 
HETATM   18  C   UNK N   1      42.240  47.588  46.859  0.00  0.00     0.183 C 
HETATM   19  C   UNK N   1      41.945  47.235  48.331  0.00  0.00     0.205 C 
BRANCH  16  20
HETATM   20  O   UNK N   1      41.505  48.966  45.014  0.00  0.00    -0.390 OA
HETATM   21  H   UNK N   1      41.268  48.119  44.554  0.00  0.00     0.210 HD
ENDBRANCH  16  20
BRANCH  18  22
HETATM   22  O   UNK N   1      43.601  47.879  46.666  0.00  0.00    -0.390 OA
HETATM   23  H   UNK N   1      43.953  48.261  47.512  0.00  0.00     0.210 HD
ENDBRANCH  18  22
BRANCH  19  24
HETATM   24  O   UNK N   1      42.388  48.258  49.195  0.00  0.00    -0.388 OA
HETATM   25  H   UNK N   1      43.380  48.268  49.207  0.00  0.00     0.210 HD
ENDBRANCH  19  24
ENDBRANCH  12  13
ENDBRANCH   3  12
BRANCH   4  26
HETATM   26  C   UNK N   1      41.139  44.040  49.729  0.00  0.00     0.001 A 
HETATM   27  C   UNK N   1      40.033  43.318  50.210  0.00  0.00     0.017 A 
HETATM   28  C   UNK N   1      39.741  43.307  51.577  0.00  0.00     0.037 A 
HETATM   29  C   UNK N   1      40.535  44.038  52.473  0.00  0.00     0.065 A 
HETATM   30  C   UNK N   1      41.628  44.769  51.993  0.00  0.00     0.037 A 
HETATM   31  C   UNK N   1      41.941  44.755  50.631  0.00  0.00     0.017 A 
BRANCH  29  32
HETATM   32  O   UNK N   1      40.260  44.038  53.792  0.00  0.00    -0.361 OA
HETATM   33  H   UNK N   1      39.677  44.699  54.192  0.00  0.00     0.217 HD
ENDBRANCH  29  32
ENDBRANCH   4  26
BRANCH   8  34
HETATM   34  O   UNK N   1      42.018  44.411  43.277  0.00  0.00    -0.360 OA
HETATM   35  H   UNK N   1      41.750  45.330  43.421  0.00  0.00     0.217 HD
ENDBRANCH   8  34
BRANCH  10  36
HETATM   36  O   UNK N   1      45.080  41.025  44.604  0.00  0.00    -0.361 OA
HETATM   37  H   UNK N   1      45.180  40.705  43.695  0.00  0.00     0.217 HD
ENDBRANCH  10  36
TORSDOF 9
ENDMDL
MODEL 5
REMARK VINA RESULT:      -4.7      4.930      7.673
REMARK  9 active torsions:
REMARK  status: ('A' for Active; 'I' for Inactive)
REMARK    1  A    between atoms: C_3  and  O_4 
REMARK    2  A    between atoms: O_4  and  C_5 
REMARK    3  A    between atoms: C_8  and  O_9 
REMARK    4  A    between atoms: C_11  and  O_12 
REMARK    5  A    between atoms: C_14  and  O_15 
REMARK    6  A    between atoms: C_18  and  C_30 
REMARK    7  A    between atoms: C_22  and  O_23 
REMARK    8  A    between atoms: C_26  and  O_28 
REMARK    9  A    between atoms: C_33  and  O_34 
ROOT
HETATM    1  O   UNK N   1      29.727  39.882  58.561  0.00  0.00    -0.284 OA
HETATM    2  C   UNK N   1      29.654  40.941  57.960  0.00  0.00     0.223 A 
HETATM    3  C   UNK N   1      29.273  40.959  56.603  0.00  0.00     0.157 A 
HETATM    4  C   UNK N   1      29.168  42.199  55.947  0.00  0.00     0.124 A 
HETATM    5  O   UNK N   1      29.485  43.322  56.583  0.00  0.00    -0.306 OA
HETATM    6  C   UNK N   1      29.854  43.353  57.857  0.00  0.00     0.096 A 
HETATM    7  C   UNK N   1      29.946  42.161  58.610  0.00  0.00     0.084 A 
HETATM    8  C   UNK N   1      30.336  42.232  59.973  0.00  0.00     0.085 A 
HETATM    9  C   UNK N   1      30.620  43.482  60.549  0.00  0.00     0.074 A 
HETATM   10  C   UNK N   1      30.523  44.653  59.794  0.00  0.00     0.071 A 
HETATM   11  C   UNK N   1      30.141  44.586  58.449  0.00  0.00     0.075 A 
ENDROOT
BRANCH   3  12
HETATM   12  O   UNK N   1      29.075  39.818  55.887  0.00  0.00    -0.311 OA
BRANCH  12  13
HETATM   13  C   UNK N   1      27.962  38.995  56.050  0.00  0.00     0.298 C 
HETATM   14  O   UNK N   1      28.368  37.632  56.084  0.00  0.00    -0.351 OA
HETATM   15  C   UNK N   1      28.979  37.228  54.866  0.00  0.00     0.152 C 
HETATM   16  C   UNK N   1      27.967  37.299  53.700  0.00  0.00     0.178 C 
HETATM   17  C   UNK N   1      29.516  35.809  55.053  0.00  0.00     0.042 C 
HETATM   18  C   UNK N   1      27.448  38.751  53.594  0.00  0.00     0.183 C 
HETATM   19  C   UNK N   1      26.896  39.225  54.954  0.00  0.00     0.205 C 
BRANCH  16  20
HETATM   20  O   UNK N   1      28.594  36.924  52.501  0.00  0.00    -0.390 OA
HETATM   21  H   UNK N   1      28.113  37.390  51.767  0.00  0.00     0.210 HD
ENDBRANCH  16  20
BRANCH  18  22
HETATM   22  O   UNK N   1      26.489  38.892  52.577  0.00  0.00    -0.390 OA
HETATM   23  H   UNK N   1      25.965  39.713  52.766  0.00  0.00     0.210 HD
ENDBRANCH  18  22
BRANCH  19  24
HETATM   24  O   UNK N   1      25.694  38.559  55.273  0.00  0.00    -0.388 OA
HETATM   25  H   UNK N   1      25.057  38.657  54.520  0.00  0.00     0.210 HD
ENDBRANCH  19  24
ENDBRANCH  12  13
ENDBRANCH   3  12
BRANCH   4  26
HETATM   26  C   UNK N   1      28.726  42.291  54.540  0.00  0.00     0.001 A 
HETATM   27  C   UNK N   1      27.402  42.648  54.228  0.00  0.00     0.017 A 
HETATM   28  C   UNK N   1      27.005  42.778  52.894  0.00  0.00     0.037 A 
HETATM   29  C   UNK N   1      27.919  42.529  51.859  0.00  0.00     0.065 A 
HETATM   30  C   UNK N   1      29.233  42.159  52.168  0.00  0.00     0.037 A 
HETATM   31  C   UNK N   1      29.641  42.060  53.502  0.00  0.00     0.017 A 
BRANCH  29  32
HETATM   32  O   UNK N   1      27.546  42.647  50.569  0.00  0.00    -0.361 OA
HETATM   33  H   UNK N   1      27.107  41.926  50.097  0.00  0.00     0.217 HD
ENDBRANCH  29  32
ENDBRANCH   4  26
BRANCH   8  34
HETATM   34  O   UNK N   1      30.440  41.114  60.722  0.00  0.00    -0.360 OA
HETATM   35  H   UNK N   1      31.258  40.599  60.762  0.00  0.00     0.217 HD
ENDBRANCH   8  34
BRANCH  10  36
HETATM   36  O   UNK N   1      30.797  45.841  60.370  0.00  0.00    -0.361 OA
HETATM   37  H   UNK N   1      31.130  45.902  61.277  0.00  0.00     0.217 HD
ENDBRANCH  10  36
TORSDOF 9
ENDMDL
MODEL 6
REMARK VINA RESULT:      -4.6     14.532     17.210
REMARK  9 active torsions:
REMARK  status: ('A' for Active; 'I' for Inactive)
REMARK    1  A    between atoms: C_3  and  O_4 
REMARK    2  A    between atoms: O_4  and  C_5 
REMARK    3  A    between atoms: C_8  and  O_9 
REMARK    4  A    between atoms: C_11  and  O_12 
REMARK    5  A    between atoms: C_14  and  O_15 
REMARK    6  A    between atoms: C_18  and  C_30 
REMARK    7  A    between atoms: C_22  and  O_23 
REMARK    8  A    between atoms: C_26  and  O_28 
REMARK    9  A    between atoms: C_33  and  O_34 
ROOT
HETATM    1  O   UNK N   1      37.523  47.097  44.599  0.00  0.00    -0.284 OA
HETATM    2  C   UNK N   1      38.493  47.816  44.772  0.00  0.00     0.223 A 
HETATM    3  C   UNK N   1      39.395  47.546  45.822  0.00  0.00     0.157 A 
HETATM    4  C   UNK N   1      40.521  48.376  45.975  0.00  0.00     0.124 A 
HETATM    5  O   UNK N   1      40.691  49.429  45.181  0.00  0.00    -0.306 OA
HETATM    6  C   UNK N   1      39.865  49.724  44.185  0.00  0.00     0.096 A 
HETATM    7  C   UNK N   1      38.730  48.923  43.927  0.00  0.00     0.084 A 
HETATM    8  C   UNK N   1      37.874  49.265  42.848  0.00  0.00     0.085 A 
HETATM    9  C   UNK N   1      38.170  50.387  42.055  0.00  0.00     0.074 A 
HETATM   10  C   UNK N   1      39.296  51.168  42.320  0.00  0.00     0.071 A 
HETATM   11  C   UNK N   1      40.141  50.837  43.385  0.00  0.00     0.075 A 
ENDROOT
BRANCH   3  12
HETATM   12  O   UNK N   1      39.176  46.560  46.734  0.00  0.00    -0.311 OA
BRANCH  12  13
HETATM   13  C   UNK N   1      39.075  45.212  46.395  0.00  0.00     0.298 C 
HETATM   14  O   UNK N   1      38.824  44.437  47.561  0.00  0.00    -0.351 OA
HETATM   15  C   UNK N   1      39.888  44.526  48.499  0.00  0.00     0.152 C 
HETATM   16  C   UNK N   1      41.185  43.927  47.910  0.00  0.00     0.178 C 
HETATM   17  C   UNK N   1      39.461  43.794  49.771  0.00  0.00     0.042 C 
HETATM   18  C   UNK N   1      41.533  44.696  46.616  0.00  0.00     0.183 C 
HETATM   19  C   UNK N   1      40.329  44.698  45.652  0.00  0.00     0.205 C 
BRANCH  16  20
HETATM   20  O   UNK N   1      42.232  44.048  48.838  0.00  0.00    -0.390 OA
HETATM   21  H   UNK N   1      41.968  43.525  49.640  0.00  0.00     0.210 HD
ENDBRANCH  16  20
BRANCH  18  22
HETATM   22  O   UNK N   1      42.684  44.184  45.995  0.00  0.00    -0.390 OA
HETATM   23  H   UNK N   1      42.511  43.232  45.771  0.00  0.00     0.210 HD
ENDBRANCH  18  22
BRANCH  19  24
HETATM   24  O   UNK N   1      40.107  43.412  45.118  0.00  0.00    -0.388 OA
HETATM   25  H   UNK N   1      39.602  42.868  45.775  0.00  0.00     0.210 HD
ENDBRANCH  19  24
ENDBRANCH  12  13
ENDBRANCH   3  12
BRANCH   4  26
HETATM   26  C   UNK N   1      41.530  48.119  47.023  0.00  0.00     0.001 A 
HETATM   27  C   UNK N   1      42.903  48.202  46.730  0.00  0.00     0.017 A 
HETATM   28  C   UNK N   1      43.850  48.004  47.739  0.00  0.00     0.037 A 
HETATM   29  C   UNK N   1      43.436  47.695  49.043  0.00  0.00     0.065 A 
HETATM   30  C   UNK N   1      42.071  47.598  49.333  0.00  0.00     0.037 A 
HETATM   31  C   UNK N   1      41.121  47.828  48.333  0.00  0.00     0.017 A 
BRANCH  29  32
HETATM   32  O   UNK N   1      44.341  47.498  50.022  0.00  0.00    -0.361 OA
HETATM   33  H   UNK N   1      44.785  48.237  50.463  0.00  0.00     0.217 HD
ENDBRANCH  29  32
ENDBRANCH   4  26
BRANCH   8  34
HETATM   34  O   UNK N   1      36.778  48.525  42.574  0.00  0.00    -0.360 OA
HETATM   35  H   UNK N   1      36.519  47.771  43.123  0.00  0.00     0.217 HD
ENDBRANCH   8  34
BRANCH  10  36
HETATM   36  O   UNK N   1      39.560  52.239  41.543  0.00  0.00    -0.361 OA
HETATM   37  H   UNK N   1      38.930  52.968  41.449  0.00  0.00     0.217 HD
ENDBRANCH  10  36
TORSDOF 9
ENDMDL
MODEL 7
REMARK VINA RESULT:      -4.6     20.210     22.886
REMARK  9 active torsions:
REMARK  status: ('A' for Active; 'I' for Inactive)
REMARK    1  A    between atoms: C_3  and  O_4 
REMARK    2  A    between atoms: O_4  and  C_5 
REMARK    3  A    between atoms: C_8  and  O_9 
REMARK    4  A    between atoms: C_11  and  O_12 
REMARK    5  A    between atoms: C_14  and  O_15 
REMARK    6  A    between atoms: C_18  and  C_30 
REMARK    7  A    between atoms: C_22  and  O_23 
REMARK    8  A    between atoms: C_26  and  O_28 
REMARK    9  A    between atoms: C_33  and  O_34 
ROOT
HETATM    1  O   UNK N   1      47.223  54.389  58.943  0.00  0.00    -0.284 OA
HETATM    2  C   UNK N   1      47.185  55.567  58.629  0.00  0.00     0.223 A 
HETATM    3  C   UNK N   1      47.980  56.042  57.566  0.00  0.00     0.157 A 
HETATM    4  C   UNK N   1      47.890  57.399  57.209  0.00  0.00     0.124 A 
HETATM    5  O   UNK N   1      47.115  58.225  57.905  0.00  0.00    -0.306 OA
HETATM    6  C   UNK N   1      46.355  57.825  58.916  0.00  0.00     0.096 A 
HETATM    7  C   UNK N   1      46.346  56.470  59.320  0.00  0.00     0.084 A 
HETATM    8  C   UNK N   1      45.514  56.076  60.399  0.00  0.00     0.085 A 
HETATM    9  C   UNK N   1      44.713  57.034  61.044  0.00  0.00     0.074 A 
HETATM   10  C   UNK N   1      44.729  58.368  60.633  0.00  0.00     0.071 A 
HETATM   11  C   UNK N   1      45.550  58.762  59.571  0.00  0.00     0.075 A 
ENDROOT
BRANCH   3  12
HETATM   12  O   UNK N   1      48.884  55.251  56.924  0.00  0.00    -0.311 OA
BRANCH  12  13
HETATM   13  C   UNK N   1      50.153  54.974  57.429  0.00  0.00     0.298 C 
HETATM   14  O   UNK N   1      51.142  55.616  56.634  0.00  0.00    -0.351 OA
HETATM   15  C   UNK N   1      51.140  55.139  55.295  0.00  0.00     0.152 C 
HETATM   16  C   UNK N   1      51.522  53.642  55.250  0.00  0.00     0.178 C 
HETATM   17  C   UNK N   1      52.120  55.990  54.487  0.00  0.00     0.042 C 
HETATM   18  C   UNK N   1      50.509  52.855  56.110  0.00  0.00     0.183 C 
HETATM   19  C   UNK N   1      50.426  53.456  57.528  0.00  0.00     0.205 C 
BRANCH  16  20
HETATM   20  O   UNK N   1      51.489  53.181  53.924  0.00  0.00    -0.390 OA
HETATM   21  H   UNK N   1      52.197  53.670  53.431  0.00  0.00     0.210 HD
ENDBRANCH  16  20
BRANCH  18  22
HETATM   22  O   UNK N   1      50.811  51.484  56.152  0.00  0.00    -0.390 OA
HETATM   23  H   UNK N   1      51.778  51.392  56.356  0.00  0.00     0.210 HD
ENDBRANCH  18  22
BRANCH  19  24
HETATM   24  O   UNK N   1      51.609  53.203  58.254  0.00  0.00    -0.388 OA
HETATM   25  H   UNK N   1      51.859  52.249  58.150  0.00  0.00     0.210 HD
ENDBRANCH  19  24
ENDBRANCH  12  13
ENDBRANCH   3  12
BRANCH   4  26
HETATM   26  C   UNK N   1      48.659  57.950  56.074  0.00  0.00     0.001 A 
HETATM   27  C   UNK N   1      48.301  57.641  54.749  0.00  0.00     0.017 A 
HETATM   28  C   UNK N   1      49.005  58.203  53.681  0.00  0.00     0.037 A 
HETATM   29  C   UNK N   1      50.090  59.058  53.925  0.00  0.00     0.065 A 
HETATM   30  C   UNK N   1      50.456  59.355  55.242  0.00  0.00     0.037 A 
HETATM   31  C   UNK N   1      49.733  58.820  56.312  0.00  0.00     0.017 A 
BRANCH  29  32
HETATM   32  O   UNK N   1      50.778  59.603  52.902  0.00  0.00    -0.361 OA
HETATM   33  H   UNK N   1      50.331  60.008  52.145  0.00  0.00     0.217 HD
ENDBRANCH  29  32
ENDBRANCH   4  26
BRANCH   8  34
HETATM   34  O   UNK N   1      45.483  54.792  60.816  0.00  0.00    -0.360 OA
HETATM   35  H   UNK N   1      44.805  54.468  61.426  0.00  0.00     0.217 HD
ENDBRANCH   8  34
BRANCH  10  36
HETATM   36  O   UNK N   1      43.949  59.269  61.266  0.00  0.00    -0.361 OA
HETATM   37  H   UNK N   1      43.884  60.186  60.965  0.00  0.00     0.217 HD
ENDBRANCH  10  36
TORSDOF 9
ENDMDL
MODEL 8
REMARK VINA RESULT:      -4.6     20.315     22.833
REMARK  9 active torsions:
REMARK  status: ('A' for Active; 'I' for Inactive)
REMARK    1  A    between atoms: C_3  and  O_4 
REMARK    2  A    between atoms: O_4  and  C_5 
REMARK    3  A    between atoms: C_8  and  O_9 
REMARK    4  A    between atoms: C_11  and  O_12 
REMARK    5  A    between atoms: C_14  and  O_15 
REMARK    6  A    between atoms: C_18  and  C_30 
REMARK    7  A    between atoms: C_22  and  O_23 
REMARK    8  A    between atoms: C_26  and  O_28 
REMARK    9  A    between atoms: C_33  and  O_34 
ROOT
HETATM    1  O   UNK N   1      48.166  57.264  56.414  0.00  0.00    -0.284 OA
HETATM    2  C   UNK N   1      48.158  56.515  57.376  0.00  0.00     0.223 A 
HETATM    3  C   UNK N   1      49.156  55.528  57.512  0.00  0.00     0.157 A 
HETATM    4  C   UNK N   1      49.136  54.700  58.649  0.00  0.00     0.124 A 
HETATM    5  O   UNK N   1      48.157  54.810  59.542  0.00  0.00    -0.306 OA
HETATM    6  C   UNK N   1      47.195  55.719  59.452  0.00  0.00     0.096 A 
HETATM    7  C   UNK N   1      47.156  56.624  58.367  0.00  0.00     0.084 A 
HETATM    8  C   UNK N   1      46.117  57.588  58.308  0.00  0.00     0.085 A 
HETATM    9  C   UNK N   1      45.151  57.631  59.326  0.00  0.00     0.074 A 
HETATM   10  C   UNK N   1      45.201  56.733  60.394  0.00  0.00     0.071 A 
HETATM   11  C   UNK N   1      46.223  55.778  60.455  0.00  0.00     0.075 A 
ENDROOT
BRANCH   3  12
HETATM   12  O   UNK N   1      50.090  55.300  56.548  0.00  0.00    -0.311 OA
BRANCH  12  13
HETATM   13  C   UNK N   1      49.916  54.380  55.516  0.00  0.00     0.298 C 
HETATM   14  O   UNK N   1      50.952  53.406  55.555  0.00  0.00    -0.351 OA
HETATM   15  C   UNK N   1      52.235  53.985  55.352  0.00  0.00     0.152 C 
HETATM   16  C   UNK N   1      52.337  54.599  53.938  0.00  0.00     0.178 C 
HETATM   17  C   UNK N   1      53.285  52.896  55.566  0.00  0.00     0.042 C 
HETATM   18  C   UNK N   1      51.228  55.665  53.789  0.00  0.00     0.183 C 
HETATM   19  C   UNK N   1      49.851  55.059  54.129  0.00  0.00     0.205 C 
BRANCH  16  20
HETATM   20  O   UNK N   1      53.599  55.190  53.765  0.00  0.00    -0.390 OA
HETATM   21  H   UNK N   1      53.654  55.944  54.409  0.00  0.00     0.210 HD
ENDBRANCH  16  20
BRANCH  18  22
HETATM   22  O   UNK N   1      51.229  56.246  52.510  0.00  0.00    -0.390 OA
HETATM   23  H   UNK N   1      51.851  57.021  52.529  0.00  0.00     0.210 HD
ENDBRANCH  18  22
BRANCH  19  24
HETATM   24  O   UNK N   1      49.443  54.143  53.138  0.00  0.00    -0.388 OA
HETATM   25  H   UNK N   1      48.586  53.726  53.411  0.00  0.00     0.210 HD
ENDBRANCH  19  24
ENDBRANCH  12  13
ENDBRANCH   3  12
BRANCH   4  26
HETATM   26  C   UNK N   1      50.179  53.679  58.877  0.00  0.00     0.001 A 
HETATM   27  C   UNK N   1      51.452  54.049  59.347  0.00  0.00     0.017 A 
HETATM   28  C   UNK N   1      52.418  53.072  59.603  0.00  0.00     0.037 A 
HETATM   29  C   UNK N   1      52.132  51.719  59.368  0.00  0.00     0.065 A 
HETATM   30  C   UNK N   1      50.871  51.351  58.887  0.00  0.00     0.037 A 
HETATM   31  C   UNK N   1      49.892  52.323  58.661  0.00  0.00     0.017 A 
BRANCH  29  32
HETATM   32  O   UNK N   1      53.058  50.769  59.609  0.00  0.00    -0.361 OA
HETATM   33  H   UNK N   1      53.605  50.400  58.901  0.00  0.00     0.217 HD
ENDBRANCH  29  32
ENDBRANCH   4  26
BRANCH   8  34
HETATM   34  O   UNK N   1      46.046  58.466  57.284  0.00  0.00    -0.360 OA
HETATM   35  H   UNK N   1      46.042  58.175  56.360  0.00  0.00     0.217 HD
ENDBRANCH   8  34
BRANCH  10  36
HETATM   36  O   UNK N   1      44.264  56.795  61.362  0.00  0.00    -0.361 OA
HETATM   37  H   UNK N   1      44.333  57.418  62.099  0.00  0.00     0.217 HD
ENDBRANCH  10  36
TORSDOF 9
ENDMDL
MODEL 9
REMARK VINA RESULT:      -4.5     20.160     22.202
REMARK  9 active torsions:
REMARK  status: ('A' for Active; 'I' for Inactive)
REMARK    1  A    between atoms: C_3  and  O_4 
REMARK    2  A    between atoms: O_4  and  C_5 
REMARK    3  A    between atoms: C_8  and  O_9 
REMARK    4  A    between atoms: C_11  and  O_12 
REMARK    5  A    between atoms: C_14  and  O_15 
REMARK    6  A    between atoms: C_18  and  C_30 
REMARK    7  A    between atoms: C_22  and  O_23 
REMARK    8  A    between atoms: C_26  and  O_28 
REMARK    9  A    between atoms: C_33  and  O_34 
ROOT
HETATM    1  O   UNK N   1      50.959  52.275  55.888  0.00  0.00    -0.284 OA
HETATM    2  C   UNK N   1      50.349  53.266  56.249  0.00  0.00     0.223 A 
HETATM    3  C   UNK N   1      49.767  53.310  57.533  0.00  0.00     0.157 A 
HETATM    4  C   UNK N   1      49.097  54.480  57.931  0.00  0.00     0.124 A 
HETATM    5  O   UNK N   1      48.965  55.498  57.086  0.00  0.00    -0.306 OA
HETATM    6  C   UNK N   1      49.490  55.499  55.867  0.00  0.00     0.096 A 
HETATM    7  C   UNK N   1      50.218  54.384  55.395  0.00  0.00     0.084 A 
HETATM    8  C   UNK N   1      50.774  54.424  54.090  0.00  0.00     0.085 A 
HETATM    9  C   UNK N   1      50.594  55.568  53.294  0.00  0.00     0.074 A 
HETATM   10  C   UNK N   1      49.875  56.664  53.773  0.00  0.00     0.071 A 
HETATM   11  C   UNK N   1      49.323  56.627  55.059  0.00  0.00     0.075 A 
ENDROOT
BRANCH   3  12
HETATM   12  O   UNK N   1      49.766  52.235  58.368  0.00  0.00    -0.311 OA
BRANCH  12  13
HETATM   13  C   UNK N   1      50.721  52.039  59.365  0.00  0.00     0.298 C 
HETATM   14  O   UNK N   1      51.766  51.207  58.877  0.00  0.00    -0.351 OA
HETATM   15  C   UNK N   1      51.296  49.912  58.525  0.00  0.00     0.152 C 
HETATM   16  C   UNK N   1      50.763  49.170  59.772  0.00  0.00     0.178 C 
HETATM   17  C   UNK N   1      52.448  49.150  57.872  0.00  0.00     0.042 C 
HETATM   18  C   UNK N   1      49.627  50.014  60.391  0.00  0.00     0.183 C 
HETATM   19  C   UNK N   1      50.110  51.454  60.658  0.00  0.00     0.205 C 
BRANCH  16  20
HETATM   20  O   UNK N   1      50.277  47.906  59.403  0.00  0.00    -0.390 OA
HETATM   21  H   UNK N   1      49.363  47.827  59.783  0.00  0.00     0.210 HD
ENDBRANCH  16  20
BRANCH  18  22
HETATM   22  O   UNK N   1      49.111  49.424  61.558  0.00  0.00    -0.390 OA
HETATM   23  H   UNK N   1      48.763  48.526  61.315  0.00  0.00     0.210 HD
ENDBRANCH  18  22
BRANCH  19  24
HETATM   24  O   UNK N   1      51.042  51.487  61.716  0.00  0.00    -0.388 OA
HETATM   25  H   UNK N   1      50.604  51.856  62.525  0.00  0.00     0.210 HD
ENDBRANCH  19  24
ENDBRANCH  12  13
ENDBRANCH   3  12
BRANCH   4  26
HETATM   26  C   UNK N   1      48.507  54.609  59.280  0.00  0.00     0.001 A 
HETATM   27  C   UNK N   1      49.250  55.166  60.336  0.00  0.00     0.017 A 
HETATM   28  C   UNK N   1      48.669  55.327  61.597  0.00  0.00     0.037 A 
HETATM   29  C   UNK N   1      47.349  54.910  61.822  0.00  0.00     0.065 A 
HETATM   30  C   UNK N   1      46.613  54.342  60.776  0.00  0.00     0.037 A 
HETATM   31  C   UNK N   1      47.181  54.210  59.506  0.00  0.00     0.017 A 
BRANCH  29  32
HETATM   32  O   UNK N   1      46.779  55.056  63.035  0.00  0.00    -0.361 OA
HETATM   33  H   UNK N   1      47.147  55.654  63.702  0.00  0.00     0.217 HD
ENDBRANCH  29  32
ENDBRANCH   4  26
BRANCH   8  34
HETATM   34  O   UNK N   1      51.471  53.375  53.603  0.00  0.00    -0.360 OA
HETATM   35  H   UNK N   1      51.053  52.521  53.424  0.00  0.00     0.217 HD
ENDBRANCH   8  34
BRANCH  10  36
HETATM   36  O   UNK N   1      49.719  57.752  52.992  0.00  0.00    -0.361 OA
HETATM   37  H   UNK N   1      50.000  58.632  53.282  0.00  0.00     0.217 HD
ENDBRANCH  10  36
TORSDOF 9
ENDMDL
