MODEL 1
REMARK VINA RESULT:      -7.7      0.000      0.000
REMARK  6 active torsions:
REMARK  status: ('A' for Active; 'I' for Inactive)
REMARK    1  A    between atoms: C_2  and  O_3 
REMARK    2  A    between atoms: C_2  and  C_5 
REMARK    3  A    between atoms: C_6  and  C_7 
REMARK    4  A    between atoms: C_12  and  C_13 
REMARK    5  A    between atoms: C_13  and  C_14 
REMARK    6  A    between atoms: C_14  and  O_15 
ROOT
HETATM    1  C   UNK N   1      41.236  47.305  47.369  0.00  0.00    -0.035 A 
HETATM    2  C   UNK N   1      40.512  46.253  47.986  0.00  0.00     0.021 A 
HETATM    3  C   UNK N   1      40.942  45.781  49.222  0.00  0.00    -0.021 A 
HETATM    4  C   UNK N   1      42.013  46.314  49.853  0.00  0.00     0.075 A 
HETATM    5  O   UNK N   1      42.258  45.708  51.014  0.00  0.00    -0.345 OA
HETATM    6  C   UNK N   1      41.450  44.589  51.156  0.00  0.00     0.139 C 
HETATM    7  C   UNK N   1      40.335  44.732  50.068  0.00  0.00     0.074 C 
HETATM    8  C   UNK N   1      42.743  47.362  49.301  0.00  0.00     0.038 A 
HETATM    9  C   UNK N   1      42.349  47.863  48.048  0.00  0.00     0.014 A 
ENDROOT
BRANCH   1  10
HETATM   10  C   UNK N   1      40.875  47.842  46.028  0.00  0.00     0.017 C 
HETATM   11  C   UNK N   1      39.687  48.422  45.760  0.00  0.00     0.083 C 
BRANCH  11  12
HETATM   12  C   UNK N   1      39.340  48.922  44.416  0.00  0.00     0.282 C 
HETATM   13  O   UNK N   1      40.049  49.741  43.850  0.00  0.00    -0.260 OA
BRANCH  12  14
HETATM   14  O   UNK N   1      38.219  48.443  43.815  0.00  0.00    -0.323 OA
HETATM   15  C   UNK N   1      37.591  49.076  42.765  0.00  0.00     0.213 C 
ENDBRANCH  12  14
ENDBRANCH  11  12
ENDBRANCH   1  10
BRANCH   6  16
HETATM   16  C   UNK N   1      40.917  44.391  52.589  0.00  0.00     0.035 C 
HETATM   17  C   UNK N   1      41.570  45.402  53.545  0.00  0.00     0.015 C 
BRANCH  16  18
HETATM   18  C   UNK N   1      41.156  42.942  53.075  0.00  0.00     0.170 C 
BRANCH  18  19
HETATM   19  O   UNK N   1      42.440  42.777  53.617  0.00  0.00    -0.400 OA
HETATM   20  H   UNK N   1      42.494  43.350  54.424  0.00  0.00     0.209 HD
ENDBRANCH  18  19
ENDBRANCH  16  18
ENDBRANCH   6  16
TORSDOF 6
ENDMDL
MODEL 2
REMARK VINA RESULT:      -7.4      1.477      8.026
REMARK  6 active torsions:
REMARK  status: ('A' for Active; 'I' for Inactive)
REMARK    1  A    between atoms: C_2  and  O_3 
REMARK    2  A    between atoms: C_2  and  C_5 
REMARK    3  A    between atoms: C_6  and  C_7 
REMARK    4  A    between atoms: C_12  and  C_13 
REMARK    5  A    between atoms: C_13  and  C_14 
REMARK    6  A    between atoms: C_14  and  O_15 
ROOT
HETATM    1  C   UNK N   1      39.886  45.206  49.035  0.00  0.00    -0.035 A 
HETATM    2  C   UNK N   1      40.659  46.293  48.554  0.00  0.00     0.021 A 
HETATM    3  C   UNK N   1      40.291  46.896  47.355  0.00  0.00    -0.021 A 
HETATM    4  C   UNK N   1      39.209  46.485  46.656  0.00  0.00     0.075 A 
HETATM    5  O   UNK N   1      39.045  47.187  45.536  0.00  0.00    -0.345 OA
HETATM    6  C   UNK N   1      40.135  48.020  45.323  0.00  0.00     0.139 C 
HETATM    7  C   UNK N   1      40.911  48.055  46.680  0.00  0.00     0.074 C 
HETATM    8  C   UNK N   1      38.405  45.438  47.096  0.00  0.00     0.038 A 
HETATM    9  C   UNK N   1      38.746  44.794  48.298  0.00  0.00     0.014 A 
ENDROOT
BRANCH   1  10
HETATM   10  C   UNK N   1      40.231  44.473  50.284  0.00  0.00     0.017 C 
HETATM   11  C   UNK N   1      41.109  44.940  51.195  0.00  0.00     0.083 C 
BRANCH  11  12
HETATM   12  C   UNK N   1      41.457  44.183  52.414  0.00  0.00     0.282 C 
HETATM   13  O   UNK N   1      42.314  44.595  53.182  0.00  0.00    -0.260 OA
BRANCH  12  14
HETATM   14  O   UNK N   1      40.797  43.023  52.668  0.00  0.00    -0.323 OA
HETATM   15  C   UNK N   1      39.697  42.941  53.493  0.00  0.00     0.213 C 
ENDBRANCH  12  14
ENDBRANCH  11  12
ENDBRANCH   1  10
BRANCH   6  16
HETATM   16  C   UNK N   1      39.751  49.410  44.774  0.00  0.00     0.035 C 
HETATM   17  C   UNK N   1      38.823  50.134  45.760  0.00  0.00     0.015 C 
BRANCH  16  18
HETATM   18  C   UNK N   1      39.089  49.292  43.381  0.00  0.00     0.170 C 
BRANCH  18  19
HETATM   19  O   UNK N   1      37.926  48.506  43.420  0.00  0.00    -0.400 OA
HETATM   20  H   UNK N   1      38.202  47.565  43.274  0.00  0.00     0.209 HD
ENDBRANCH  18  19
ENDBRANCH  16  18
ENDBRANCH   6  16
TORSDOF 6
ENDMDL
MODEL 3
REMARK VINA RESULT:      -6.9      1.534      8.125
REMARK  6 active torsions:
REMARK  status: ('A' for Active; 'I' for Inactive)
REMARK    1  A    between atoms: C_2  and  O_3 
REMARK    2  A    between atoms: C_2  and  C_5 
REMARK    3  A    between atoms: C_6  and  C_7 
REMARK    4  A    between atoms: C_12  and  C_13 
REMARK    5  A    between atoms: C_13  and  C_14 
REMARK    6  A    between atoms: C_14  and  O_15 
ROOT
HETATM    1  C   UNK N   1      41.561  46.526  47.983  0.00  0.00    -0.035 A 
HETATM    2  C   UNK N   1      40.320  46.771  47.342  0.00  0.00     0.021 A 
HETATM    3  C   UNK N   1      40.267  47.725  46.332  0.00  0.00    -0.021 A 
HETATM    4  C   UNK N   1      41.368  48.404  45.935  0.00  0.00     0.075 A 
HETATM    5  O   UNK N   1      41.094  49.276  44.967  0.00  0.00    -0.345 OA
HETATM    6  C   UNK N   1      39.722  49.361  44.767  0.00  0.00     0.139 C 
HETATM    7  C   UNK N   1      39.110  48.123  45.502  0.00  0.00     0.074 C 
HETATM    8  C   UNK N   1      42.613  48.184  46.517  0.00  0.00     0.038 A 
HETATM    9  C   UNK N   1      42.710  47.235  47.549  0.00  0.00     0.014 A 
ENDROOT
BRANCH   1  10
HETATM   10  C   UNK N   1      41.703  45.555  49.103  0.00  0.00     0.017 C 
HETATM   11  C   UNK N   1      40.654  44.922  49.667  0.00  0.00     0.083 C 
BRANCH  11  12
HETATM   12  C   UNK N   1      40.815  43.984  50.797  0.00  0.00     0.282 C 
HETATM   13  O   UNK N   1      41.559  43.018  50.706  0.00  0.00    -0.260 OA
BRANCH  12  14
HETATM   14  O   UNK N   1      40.126  44.224  51.942  0.00  0.00    -0.323 OA
HETATM   15  C   UNK N   1      40.153  43.385  53.034  0.00  0.00     0.213 C 
ENDBRANCH  12  14
ENDBRANCH  11  12
ENDBRANCH   1  10
BRANCH   6  16
HETATM   16  C   UNK N   1      39.322  49.482  43.283  0.00  0.00     0.035 C 
HETATM   17  C   UNK N   1      39.580  50.908  42.775  0.00  0.00     0.015 C 
BRANCH  16  18
HETATM   18  C   UNK N   1      37.842  49.083  43.074  0.00  0.00     0.170 C 
BRANCH  18  19
HETATM   19  O   UNK N   1      37.438  49.253  41.740  0.00  0.00    -0.400 OA
HETATM   20  H   UNK N   1      37.948  48.601  41.194  0.00  0.00     0.209 HD
ENDBRANCH  18  19
ENDBRANCH  16  18
ENDBRANCH   6  16
TORSDOF 6
ENDMDL
MODEL 4
REMARK VINA RESULT:      -6.7      1.491      2.197
REMARK  6 active torsions:
REMARK  status: ('A' for Active; 'I' for Inactive)
REMARK    1  A    between atoms: C_2  and  O_3 
REMARK    2  A    between atoms: C_2  and  C_5 
REMARK    3  A    between atoms: C_6  and  C_7 
REMARK    4  A    between atoms: C_12  and  C_13 
REMARK    5  A    between atoms: C_13  and  C_14 
REMARK    6  A    between atoms: C_14  and  O_15 
ROOT
HETATM    1  C   UNK N   1      40.306  47.205  46.823  0.00  0.00    -0.035 A 
HETATM    2  C   UNK N   1      41.302  47.086  47.826  0.00  0.00     0.021 A 
HETATM    3  C   UNK N   1      41.058  46.255  48.915  0.00  0.00    -0.021 A 
HETATM    4  C   UNK N   1      39.911  45.547  49.026  0.00  0.00     0.075 A 
HETATM    5  O   UNK N   1      39.877  44.828  50.147  0.00  0.00    -0.345 OA
HETATM    6  C   UNK N   1      40.953  45.152  50.962  0.00  0.00     0.139 C 
HETATM    7  C   UNK N   1      41.949  45.944  50.053  0.00  0.00     0.074 C 
HETATM    8  C   UNK N   1      38.913  45.611  48.058  0.00  0.00     0.038 A 
HETATM    9  C   UNK N   1      39.114  46.447  46.946  0.00  0.00     0.014 A 
ENDROOT
BRANCH   1  10
HETATM   10  C   UNK N   1      40.463  48.104  45.647  0.00  0.00     0.017 C 
HETATM   11  C   UNK N   1      39.567  49.058  45.322  0.00  0.00     0.083 C 
BRANCH  11  12
HETATM   12  C   UNK N   1      39.728  49.919  44.134  0.00  0.00     0.282 C 
HETATM   13  O   UNK N   1      40.186  51.048  44.237  0.00  0.00    -0.260 OA
BRANCH  12  14
HETATM   14  O   UNK N   1      39.366  49.425  42.921  0.00  0.00    -0.323 OA
HETATM   15  C   UNK N   1      38.959  50.217  41.870  0.00  0.00     0.213 C 
ENDBRANCH  12  14
ENDBRANCH  11  12
ENDBRANCH   1  10
BRANCH   6  16
HETATM   16  C   UNK N   1      41.575  43.933  51.675  0.00  0.00     0.035 C 
HETATM   17  C   UNK N   1      41.655  42.738  50.713  0.00  0.00     0.015 C 
BRANCH  16  18
HETATM   18  C   UNK N   1      40.773  43.565  52.945  0.00  0.00     0.170 C 
BRANCH  18  19
HETATM   19  O   UNK N   1      39.453  43.196  52.641  0.00  0.00    -0.400 OA
HETATM   20  H   UNK N   1      39.434  42.207  52.568  0.00  0.00     0.209 HD
ENDBRANCH  18  19
ENDBRANCH  16  18
ENDBRANCH   6  16
TORSDOF 6
ENDMDL
MODEL 5
REMARK VINA RESULT:      -5.5     11.873     15.034
REMARK  6 active torsions:
REMARK  status: ('A' for Active; 'I' for Inactive)
REMARK    1  A    between atoms: C_2  and  O_3 
REMARK    2  A    between atoms: C_2  and  C_5 
REMARK    3  A    between atoms: C_6  and  C_7 
REMARK    4  A    between atoms: C_12  and  C_13 
REMARK    5  A    between atoms: C_13  and  C_14 
REMARK    6  A    between atoms: C_14  and  O_15 
ROOT
HETATM    1  C   UNK N   1      33.205  54.979  44.748  0.00  0.00    -0.035 A 
HETATM    2  C   UNK N   1      32.256  55.652  43.936  0.00  0.00     0.021 A 
HETATM    3  C   UNK N   1      31.431  54.899  43.109  0.00  0.00    -0.021 A 
HETATM    4  C   UNK N   1      31.497  53.548  43.077  0.00  0.00     0.075 A 
HETATM    5  O   UNK N   1      30.631  53.028  42.210  0.00  0.00    -0.345 OA
HETATM    6  C   UNK N   1      30.034  54.032  41.460  0.00  0.00     0.139 C 
HETATM    7  C   UNK N   1      30.353  55.367  42.211  0.00  0.00     0.074 C 
HETATM    8  C   UNK N   1      32.394  52.840  43.870  0.00  0.00     0.038 A 
HETATM    9  C   UNK N   1      33.255  53.562  44.714  0.00  0.00     0.014 A 
ENDROOT
BRANCH   1  10
HETATM   10  C   UNK N   1      34.158  55.706  45.631  0.00  0.00     0.017 C 
HETATM   11  C   UNK N   1      33.827  56.167  46.854  0.00  0.00     0.083 C 
BRANCH  11  12
HETATM   12  C   UNK N   1      34.780  56.911  47.701  0.00  0.00     0.282 C 
HETATM   13  O   UNK N   1      35.986  56.779  47.549  0.00  0.00    -0.260 OA
BRANCH  12  14
HETATM   14  O   UNK N   1      34.288  57.754  48.646  0.00  0.00    -0.323 OA
HETATM   15  C   UNK N   1      33.236  58.615  48.421  0.00  0.00     0.213 C 
ENDBRANCH  12  14
ENDBRANCH  11  12
ENDBRANCH   1  10
BRANCH   6  16
HETATM   16  C   UNK N   1      28.533  53.795  41.196  0.00  0.00     0.035 C 
HETATM   17  C   UNK N   1      28.290  53.524  39.704  0.00  0.00     0.015 C 
BRANCH  16  18
HETATM   18  C   UNK N   1      27.688  54.997  41.681  0.00  0.00     0.170 C 
BRANCH  18  19
HETATM   19  O   UNK N   1      26.561  54.585  42.409  0.00  0.00    -0.400 OA
HETATM   20  H   UNK N   1      25.767  54.747  41.837  0.00  0.00     0.209 HD
ENDBRANCH  18  19
ENDBRANCH  16  18
ENDBRANCH   6  16
TORSDOF 6
ENDMDL
MODEL 6
REMARK VINA RESULT:      -5.5      1.753      7.702
REMARK  6 active torsions:
REMARK  status: ('A' for Active; 'I' for Inactive)
REMARK    1  A    between atoms: C_2  and  O_3 
REMARK    2  A    between atoms: C_2  and  C_5 
REMARK    3  A    between atoms: C_6  and  C_7 
REMARK    4  A    between atoms: C_12  and  C_13 
REMARK    5  A    between atoms: C_13  and  C_14 
REMARK    6  A    between atoms: C_14  and  O_15 
ROOT
HETATM    1  C   UNK N   1      41.224  44.619  49.168  0.00  0.00    -0.035 A 
HETATM    2  C   UNK N   1      41.002  46.011  49.005  0.00  0.00     0.021 A 
HETATM    3  C   UNK N   1      41.083  46.556  47.729  0.00  0.00    -0.021 A 
HETATM    4  C   UNK N   1      41.345  45.791  46.644  0.00  0.00     0.075 A 
HETATM    5  O   UNK N   1      41.390  46.513  45.526  0.00  0.00    -0.345 OA
HETATM    6  C   UNK N   1      41.330  47.868  45.821  0.00  0.00     0.139 C 
HETATM    7  C   UNK N   1      40.856  47.955  47.309  0.00  0.00     0.074 C 
HETATM    8  C   UNK N   1      41.547  44.418  46.747  0.00  0.00     0.038 A 
HETATM    9  C   UNK N   1      41.485  43.828  48.020  0.00  0.00     0.014 A 
ENDROOT
BRANCH   1  10
HETATM   10  C   UNK N   1      41.201  43.958  50.501  0.00  0.00     0.017 C 
HETATM   11  C   UNK N   1      40.216  44.148  51.403  0.00  0.00     0.083 C 
BRANCH  11  12
HETATM   12  C   UNK N   1      40.228  43.504  52.731  0.00  0.00     0.282 C 
HETATM   13  O   UNK N   1      39.455  42.595  52.992  0.00  0.00    -0.260 OA
BRANCH  12  14
HETATM   14  O   UNK N   1      41.126  43.938  53.654  0.00  0.00    -0.323 OA
HETATM   15  C   UNK N   1      41.772  45.152  53.572  0.00  0.00     0.213 C 
ENDBRANCH  12  14
ENDBRANCH  11  12
ENDBRANCH   1  10
BRANCH   6  16
HETATM   16  C   UNK N   1      40.468  48.678  44.831  0.00  0.00     0.035 C 
HETATM   17  C   UNK N   1      40.918  50.146  44.810  0.00  0.00     0.015 C 
BRANCH  16  18
HETATM   18  C   UNK N   1      38.967  48.568  45.185  0.00  0.00     0.170 C 
BRANCH  18  19
HETATM   19  O   UNK N   1      38.518  47.238  45.154  0.00  0.00    -0.400 OA
HETATM   20  H   UNK N   1      38.443  46.931  46.094  0.00  0.00     0.209 HD
ENDBRANCH  18  19
ENDBRANCH  16  18
ENDBRANCH   6  16
TORSDOF 6
ENDMDL
MODEL 7
REMARK VINA RESULT:      -5.2     14.851     16.635
REMARK  6 active torsions:
REMARK  status: ('A' for Active; 'I' for Inactive)
REMARK    1  A    between atoms: C_2  and  O_3 
REMARK    2  A    between atoms: C_2  and  C_5 
REMARK    3  A    between atoms: C_6  and  C_7 
REMARK    4  A    between atoms: C_12  and  C_13 
REMARK    5  A    between atoms: C_13  and  C_14 
REMARK    6  A    between atoms: C_14  and  O_15 
ROOT
HETATM    1  C   UNK N   1      34.900  50.196  64.110  0.00  0.00    -0.035 A 
HETATM    2  C   UNK N   1      35.222  49.418  62.969  0.00  0.00     0.021 A 
HETATM    3  C   UNK N   1      36.249  48.486  63.063  0.00  0.00    -0.021 A 
HETATM    4  C   UNK N   1      36.928  48.290  64.217  0.00  0.00     0.075 A 
HETATM    5  O   UNK N   1      37.876  47.364  64.086  0.00  0.00    -0.345 OA
HETATM    6  C   UNK N   1      38.009  46.994  62.754  0.00  0.00     0.139 C 
HETATM    7  C   UNK N   1      36.735  47.544  62.033  0.00  0.00     0.074 C 
HETATM    8  C   UNK N   1      36.635  49.011  65.370  0.00  0.00     0.038 A 
HETATM    9  C   UNK N   1      35.611  49.971  65.316  0.00  0.00     0.014 A 
ENDROOT
BRANCH   1  10
HETATM   10  C   UNK N   1      33.846  51.247  64.088  0.00  0.00     0.017 C 
HETATM   11  C   UNK N   1      34.072  52.511  63.677  0.00  0.00     0.083 C 
BRANCH  11  12
HETATM   12  C   UNK N   1      33.018  53.545  63.691  0.00  0.00     0.282 C 
HETATM   13  O   UNK N   1      31.848  53.243  63.871  0.00  0.00    -0.260 OA
BRANCH  12  14
HETATM   14  O   UNK N   1      33.379  54.842  63.508  0.00  0.00    -0.323 OA
HETATM   15  C   UNK N   1      34.685  55.280  63.550  0.00  0.00     0.213 C 
ENDBRANCH  12  14
ENDBRANCH  11  12
ENDBRANCH   1  10
BRANCH   6  16
HETATM   16  C   UNK N   1      38.249  45.483  62.556  0.00  0.00     0.035 C 
HETATM   17  C   UNK N   1      36.997  44.818  61.963  0.00  0.00     0.015 C 
BRANCH  16  18
HETATM   18  C   UNK N   1      38.653  44.806  63.887  0.00  0.00     0.170 C 
BRANCH  18  19
HETATM   19  O   UNK N   1      39.924  45.219  64.319  0.00  0.00    -0.400 OA
HETATM   20  H   UNK N   1      40.504  45.269  63.516  0.00  0.00     0.209 HD
ENDBRANCH  18  19
ENDBRANCH  16  18
ENDBRANCH   6  16
TORSDOF 6
ENDMDL
MODEL 8
REMARK VINA RESULT:      -5.2      3.744      7.559
REMARK  6 active torsions:
REMARK  status: ('A' for Active; 'I' for Inactive)
REMARK    1  A    between atoms: C_2  and  O_3 
REMARK    2  A    between atoms: C_2  and  C_5 
REMARK    3  A    between atoms: C_6  and  C_7 
REMARK    4  A    between atoms: C_12  and  C_13 
REMARK    5  A    between atoms: C_13  and  C_14 
REMARK    6  A    between atoms: C_14  and  O_15 
ROOT
HETATM    1  C   UNK N   1      41.272  44.410  47.137  0.00  0.00    -0.035 A 
HETATM    2  C   UNK N   1      41.407  45.388  46.120  0.00  0.00     0.021 A 
HETATM    3  C   UNK N   1      40.595  46.516  46.166  0.00  0.00    -0.021 A 
HETATM    4  C   UNK N   1      39.701  46.709  47.163  0.00  0.00     0.075 A 
HETATM    5  O   UNK N   1      39.019  47.842  47.007  0.00  0.00    -0.345 OA
HETATM    6  C   UNK N   1      39.300  48.410  45.772  0.00  0.00     0.139 C 
HETATM    7  C   UNK N   1      40.579  47.677  45.250  0.00  0.00     0.074 C 
HETATM    8  C   UNK N   1      39.546  45.789  48.196  0.00  0.00     0.038 A 
HETATM    9  C   UNK N   1      40.340  44.630  48.183  0.00  0.00     0.014 A 
ENDROOT
BRANCH   1  10
HETATM   10  C   UNK N   1      42.069  43.152  47.145  0.00  0.00     0.017 C 
HETATM   11  C   UNK N   1      42.433  42.502  46.021  0.00  0.00     0.083 C 
BRANCH  11  12
HETATM   12  C   UNK N   1      43.198  41.240  46.053  0.00  0.00     0.282 C 
HETATM   13  O   UNK N   1      42.777  40.268  46.663  0.00  0.00    -0.260 OA
BRANCH  12  14
HETATM   14  O   UNK N   1      44.377  41.179  45.380  0.00  0.00    -0.323 OA
HETATM   15  C   UNK N   1      44.761  42.106  44.436  0.00  0.00     0.213 C 
ENDBRANCH  12  14
ENDBRANCH  11  12
ENDBRANCH   1  10
BRANCH   6  16
HETATM   16  C   UNK N   1      39.421  49.947  45.814  0.00  0.00     0.035 C 
HETATM   17  C   UNK N   1      38.436  50.532  46.838  0.00  0.00     0.015 C 
BRANCH  16  18
HETATM   18  C   UNK N   1      39.188  50.560  44.413  0.00  0.00     0.170 C 
BRANCH  18  19
HETATM   19  O   UNK N   1      40.385  51.008  43.832  0.00  0.00    -0.400 OA
HETATM   20  H   UNK N   1      41.057  50.290  43.954  0.00  0.00     0.209 HD
ENDBRANCH  18  19
ENDBRANCH  16  18
ENDBRANCH   6  16
TORSDOF 6
ENDMDL
MODEL 9
REMARK VINA RESULT:      -5.0     12.980     14.318
REMARK  6 active torsions:
REMARK  status: ('A' for Active; 'I' for Inactive)
REMARK    1  A    between atoms: C_2  and  O_3 
REMARK    2  A    between atoms: C_2  and  C_5 
REMARK    3  A    between atoms: C_6  and  C_7 
REMARK    4  A    between atoms: C_12  and  C_13 
REMARK    5  A    between atoms: C_13  and  C_14 
REMARK    6  A    between atoms: C_14  and  O_15 
ROOT
HETATM    1  C   UNK N   1      30.274  46.993  58.320  0.00  0.00    -0.035 A 
HETATM    2  C   UNK N   1      30.109  46.294  59.543  0.00  0.00     0.021 A 
HETATM    3  C   UNK N   1      30.656  45.021  59.664  0.00  0.00    -0.021 A 
HETATM    4  C   UNK N   1      31.354  44.448  58.657  0.00  0.00     0.075 A 
HETATM    5  O   UNK N   1      31.777  43.226  58.977  0.00  0.00    -0.345 OA
HETATM    6  C   UNK N   1      31.227  42.825  60.187  0.00  0.00     0.139 C 
HETATM    7  C   UNK N   1      30.648  44.124  60.839  0.00  0.00     0.074 C 
HETATM    8  C   UNK N   1      31.563  45.101  57.447  0.00  0.00     0.038 A 
HETATM    9  C   UNK N   1      31.020  46.385  57.278  0.00  0.00     0.014 A 
ENDROOT
BRANCH   1  10
HETATM   10  C   UNK N   1      29.686  48.340  58.086  0.00  0.00     0.017 C 
HETATM   11  C   UNK N   1      29.932  49.071  56.980  0.00  0.00     0.083 C 
BRANCH  11  12
HETATM   12  C   UNK N   1      29.361  50.418  56.782  0.00  0.00     0.282 C 
HETATM   13  O   UNK N   1      29.127  51.144  57.737  0.00  0.00    -0.260 OA
BRANCH  12  14
HETATM   14  O   UNK N   1      29.111  50.837  55.514  0.00  0.00    -0.323 OA
HETATM   15  C   UNK N   1      30.067  50.867  54.523  0.00  0.00     0.213 C 
ENDBRANCH  12  14
ENDBRANCH  11  12
ENDBRANCH   1  10
BRANCH   6  16
HETATM   16  C   UNK N   1      32.212  42.048  61.085  0.00  0.00     0.035 C 
HETATM   17  C   UNK N   1      33.019  43.022  61.957  0.00  0.00     0.015 C 
BRANCH  16  18
HETATM   18  C   UNK N   1      33.152  41.160  60.237  0.00  0.00     0.170 C 
BRANCH  18  19
HETATM   19  O   UNK N   1      34.291  41.862  59.810  0.00  0.00    -0.400 OA
HETATM   20  H   UNK N   1      34.125  42.151  58.877  0.00  0.00     0.209 HD
ENDBRANCH  18  19
ENDBRANCH  16  18
ENDBRANCH   6  16
TORSDOF 6
ENDMDL
