MODEL 1
REMARK VINA RESULT:      -7.0      0.000      0.000
REMARK  5 active torsions:
REMARK  status: ('A' for Active; 'I' for Inactive)
REMARK    1  A    between atoms: C_4  and  O_5 
REMARK    2  A    between atoms: C_7  and  O_8 
REMARK    3  A    between atoms: C_10  and  O_11 
REMARK    4  A    between atoms: C_16  and  C_18 
REMARK    5  A    between atoms: C_21  and  O_22 
ROOT
HETATM    1  O   UNK N   1      43.905  48.386  46.922  0.00  0.00    -0.287 OA
HETATM    2  C   UNK N   1      42.810  47.938  47.195  0.00  0.00     0.190 A 
HETATM    3  C   UNK N   1      41.651  48.259  46.438  0.00  0.00     0.084 A 
HETATM    4  C   UNK N   1      41.631  49.136  45.300  0.00  0.00     0.118 A 
HETATM    5  C   UNK N   1      40.403  49.398  44.651  0.00  0.00     0.133 A 
HETATM    6  C   UNK N   1      39.212  48.814  45.098  0.00  0.00     0.106 A 
HETATM    7  C   UNK N   1      39.240  47.946  46.195  0.00  0.00     0.078 A 
HETATM    8  C   UNK N   1      40.432  47.667  46.854  0.00  0.00     0.096 A 
HETATM    9  O   UNK N   1      40.391  46.841  47.892  0.00  0.00    -0.309 OA
HETATM   10  C   UNK N   1      41.453  46.543  48.628  0.00  0.00     0.090 A 
HETATM   11  C   UNK N   1      42.698  47.092  48.298  0.00  0.00     0.094 A 
ENDROOT
BRANCH  10  12
HETATM   12  C   UNK N   1      41.274  45.637  49.788  0.00  0.00    -0.002 A 
HETATM   13  C   UNK N   1      40.296  44.629  49.734  0.00  0.00     0.017 A 
HETATM   14  C   UNK N   1      40.110  43.764  50.816  0.00  0.00     0.037 A 
HETATM   15  C   UNK N   1      40.876  43.907  51.978  0.00  0.00     0.068 A 
HETATM   16  C   UNK N   1      41.846  44.928  52.041  0.00  0.00     0.037 A 
HETATM   17  C   UNK N   1      42.049  45.776  50.954  0.00  0.00     0.017 A 
BRANCH  15  18
HETATM   18  O   UNK N   1      40.656  43.055  53.014  0.00  0.00    -0.356 OA
HETATM   19  C   UNK N   1      39.409  42.676  53.466  0.00  0.00     0.210 C 
ENDBRANCH  15  18
ENDBRANCH  10  12
BRANCH   4  20
HETATM   20  O   UNK N   1      42.737  49.742  44.807  0.00  0.00    -0.357 OA
HETATM   21  H   UNK N   1      42.783  50.600  44.378  0.00  0.00     0.218 HD
ENDBRANCH   4  20
BRANCH   6  22
HETATM   22  O   UNK N   1      38.051  49.109  44.451  0.00  0.00    -0.353 OA
HETATM   23  C   UNK N   1      37.819  48.893  43.107  0.00  0.00     0.210 C 
ENDBRANCH   6  22
BRANCH   5  24
HETATM   24  O   UNK N   1      40.356  50.228  43.583  0.00  0.00    -0.356 OA
HETATM   25  H   UNK N   1      40.387  51.191  43.667  0.00  0.00     0.218 HD
ENDBRANCH   5  24
TORSDOF 5
ENDMDL
MODEL 2
REMARK VINA RESULT:      -7.0      3.374      7.922
REMARK  5 active torsions:
REMARK  status: ('A' for Active; 'I' for Inactive)
REMARK    1  A    between atoms: C_4  and  O_5 
REMARK    2  A    between atoms: C_7  and  O_8 
REMARK    3  A    between atoms: C_10  and  O_11 
REMARK    4  A    between atoms: C_16  and  C_18 
REMARK    5  A    between atoms: C_21  and  O_22 
ROOT
HETATM    1  O   UNK N   1      40.178  45.895  48.803  0.00  0.00    -0.287 OA
HETATM    2  C   UNK N   1      40.454  45.994  47.625  0.00  0.00     0.190 A 
HETATM    3  C   UNK N   1      41.114  44.956  46.913  0.00  0.00     0.084 A 
HETATM    4  C   UNK N   1      41.536  43.708  47.485  0.00  0.00     0.118 A 
HETATM    5  C   UNK N   1      42.213  42.768  46.674  0.00  0.00     0.133 A 
HETATM    6  C   UNK N   1      42.473  43.036  45.325  0.00  0.00     0.106 A 
HETATM    7  C   UNK N   1      42.043  44.246  44.768  0.00  0.00     0.078 A 
HETATM    8  C   UNK N   1      41.373  45.189  45.538  0.00  0.00     0.096 A 
HETATM    9  O   UNK N   1      40.998  46.319  44.953  0.00  0.00    -0.309 OA
HETATM   10  C   UNK N   1      40.401  47.311  45.599  0.00  0.00     0.090 A 
HETATM   11  C   UNK N   1      40.116  47.173  46.963  0.00  0.00     0.094 A 
ENDROOT
BRANCH  10  12
HETATM   12  C   UNK N   1      40.064  48.541  44.844  0.00  0.00    -0.002 A 
HETATM   13  C   UNK N   1      40.956  49.627  44.855  0.00  0.00     0.017 A 
HETATM   14  C   UNK N   1      40.658  50.797  44.151  0.00  0.00     0.037 A 
HETATM   15  C   UNK N   1      39.454  50.914  43.449  0.00  0.00     0.068 A 
HETATM   16  C   UNK N   1      38.549  49.834  43.451  0.00  0.00     0.037 A 
HETATM   17  C   UNK N   1      38.856  48.658  44.132  0.00  0.00     0.017 A 
BRANCH  15  18
HETATM   18  O   UNK N   1      39.194  52.073  42.788  0.00  0.00    -0.356 OA
HETATM   19  C   UNK N   1      40.078  53.128  42.677  0.00  0.00     0.210 C 
ENDBRANCH  15  18
ENDBRANCH  10  12
BRANCH   4  20
HETATM   20  O   UNK N   1      41.326  43.373  48.781  0.00  0.00    -0.357 OA
HETATM   21  H   UNK N   1      40.501  43.438  49.268  0.00  0.00     0.218 HD
ENDBRANCH   4  20
BRANCH   6  22
HETATM   22  O   UNK N   1      43.143  42.109  44.588  0.00  0.00    -0.353 OA
HETATM   23  C   UNK N   1      44.511  42.083  44.403  0.00  0.00     0.210 C 
ENDBRANCH   6  22
BRANCH   5  24
HETATM   24  O   UNK N   1      42.629  41.590  47.192  0.00  0.00    -0.356 OA
HETATM   25  H   UNK N   1      42.625  41.405  48.142  0.00  0.00     0.218 HD
ENDBRANCH   5  24
TORSDOF 5
ENDMDL
MODEL 3
REMARK VINA RESULT:      -6.0      2.064      7.789
REMARK  5 active torsions:
REMARK  status: ('A' for Active; 'I' for Inactive)
REMARK    1  A    between atoms: C_4  and  O_5 
REMARK    2  A    between atoms: C_7  and  O_8 
REMARK    3  A    between atoms: C_10  and  O_11 
REMARK    4  A    between atoms: C_16  and  C_18 
REMARK    5  A    between atoms: C_21  and  O_22 
ROOT
HETATM    1  O   UNK N   1      41.723  43.346  46.018  0.00  0.00    -0.287 OA
HETATM    2  C   UNK N   1      41.480  44.387  46.594  0.00  0.00     0.190 A 
HETATM    3  C   UNK N   1      41.425  44.471  48.012  0.00  0.00     0.084 A 
HETATM    4  C   UNK N   1      41.630  43.368  48.908  0.00  0.00     0.118 A 
HETATM    5  C   UNK N   1      41.517  43.578  50.302  0.00  0.00     0.133 A 
HETATM    6  C   UNK N   1      41.213  44.844  50.817  0.00  0.00     0.106 A 
HETATM    7  C   UNK N   1      41.034  45.920  49.940  0.00  0.00     0.078 A 
HETATM    8  C   UNK N   1      41.140  45.745  48.566  0.00  0.00     0.096 A 
HETATM    9  O   UNK N   1      40.951  46.803  47.787  0.00  0.00    -0.309 OA
HETATM   10  C   UNK N   1      40.975  46.746  46.463  0.00  0.00     0.090 A 
HETATM   11  C   UNK N   1      41.238  45.526  45.828  0.00  0.00     0.094 A 
ENDROOT
BRANCH  10  12
HETATM   12  C   UNK N   1      40.711  47.989  45.699  0.00  0.00    -0.002 A 
HETATM   13  C   UNK N   1      39.439  48.202  45.140  0.00  0.00     0.017 A 
HETATM   14  C   UNK N   1      39.169  49.366  44.416  0.00  0.00     0.037 A 
HETATM   15  C   UNK N   1      40.169  50.324  44.214  0.00  0.00     0.068 A 
HETATM   16  C   UNK N   1      41.450  50.105  44.759  0.00  0.00     0.037 A 
HETATM   17  C   UNK N   1      41.714  48.956  45.501  0.00  0.00     0.017 A 
BRANCH  15  18
HETATM   18  O   UNK N   1      39.871  51.436  43.492  0.00  0.00    -0.356 OA
HETATM   19  C   UNK N   1      39.518  51.435  42.158  0.00  0.00     0.210 C 
ENDBRANCH  15  18
ENDBRANCH  10  12
BRANCH   4  20
HETATM   20  O   UNK N   1      41.924  42.113  48.492  0.00  0.00    -0.357 OA
HETATM   21  H   UNK N   1      42.338  41.862  47.662  0.00  0.00     0.218 HD
ENDBRANCH   4  20
BRANCH   6  22
HETATM   22  O   UNK N   1      41.099  44.995  52.165  0.00  0.00    -0.353 OA
HETATM   23  C   UNK N   1      42.090  45.487  52.992  0.00  0.00     0.210 C 
ENDBRANCH   6  22
BRANCH   5  24
HETATM   24  O   UNK N   1      41.696  42.553  51.167  0.00  0.00    -0.356 OA
HETATM   25  H   UNK N   1      42.474  42.479  51.737  0.00  0.00     0.218 HD
ENDBRANCH   5  24
TORSDOF 5
ENDMDL
MODEL 4
REMARK VINA RESULT:      -6.0     12.027     16.032
REMARK  5 active torsions:
REMARK  status: ('A' for Active; 'I' for Inactive)
REMARK    1  A    between atoms: C_4  and  O_5 
REMARK    2  A    between atoms: C_7  and  O_8 
REMARK    3  A    between atoms: C_10  and  O_11 
REMARK    4  A    between atoms: C_16  and  C_18 
REMARK    5  A    between atoms: C_21  and  O_22 
ROOT
HETATM    1  O   UNK N   1      25.882  55.693  42.352  0.00  0.00    -0.287 OA
HETATM    2  C   UNK N   1      26.885  55.099  42.012  0.00  0.00     0.190 A 
HETATM    3  C   UNK N   1      26.912  54.248  40.875  0.00  0.00     0.084 A 
HETATM    4  C   UNK N   1      25.787  53.983  40.021  0.00  0.00     0.118 A 
HETATM    5  C   UNK N   1      25.938  53.090  38.936  0.00  0.00     0.133 A 
HETATM    6  C   UNK N   1      27.165  52.466  38.681  0.00  0.00     0.106 A 
HETATM    7  C   UNK N   1      28.263  52.742  39.504  0.00  0.00     0.078 A 
HETATM    8  C   UNK N   1      28.147  53.617  40.578  0.00  0.00     0.096 A 
HETATM    9  O   UNK N   1      29.222  53.832  41.325  0.00  0.00    -0.309 OA
HETATM   10  C   UNK N   1      29.218  54.603  42.404  0.00  0.00     0.090 A 
HETATM   11  C   UNK N   1      28.039  55.258  42.779  0.00  0.00     0.094 A 
ENDROOT
BRANCH  10  12
HETATM   12  C   UNK N   1      30.473  54.735  43.180  0.00  0.00    -0.002 A 
HETATM   13  C   UNK N   1      30.484  54.390  44.543  0.00  0.00     0.017 A 
HETATM   14  C   UNK N   1      31.657  54.508  45.294  0.00  0.00     0.037 A 
HETATM   15  C   UNK N   1      32.829  54.997  44.708  0.00  0.00     0.068 A 
HETATM   16  C   UNK N   1      32.816  55.360  43.346  0.00  0.00     0.037 A 
HETATM   17  C   UNK N   1      31.654  55.221  42.590  0.00  0.00     0.017 A 
BRANCH  15  18
HETATM   18  O   UNK N   1      33.945  55.110  45.475  0.00  0.00    -0.356 OA
HETATM   19  C   UNK N   1      34.378  56.282  46.062  0.00  0.00     0.210 C 
ENDBRANCH  15  18
ENDBRANCH  10  12
BRANCH   4  20
HETATM   20  O   UNK N   1      24.567  54.543  40.201  0.00  0.00    -0.357 OA
HETATM   21  H   UNK N   1      23.724  54.202  39.891  0.00  0.00     0.218 HD
ENDBRANCH   4  20
BRANCH   6  22
HETATM   22  O   UNK N   1      27.257  51.600  37.635  0.00  0.00    -0.353 OA
HETATM   23  C   UNK N   1      27.634  51.949  36.352  0.00  0.00     0.210 C 
ENDBRANCH   6  22
BRANCH   5  24
HETATM   24  O   UNK N   1      24.891  52.816  38.123  0.00  0.00    -0.356 OA
HETATM   25  H   UNK N   1      24.646  53.381  37.377  0.00  0.00     0.218 HD
ENDBRANCH   5  24
TORSDOF 5
ENDMDL
MODEL 5
REMARK VINA RESULT:      -5.9      2.013      8.105
REMARK  5 active torsions:
REMARK  status: ('A' for Active; 'I' for Inactive)
REMARK    1  A    between atoms: C_4  and  O_5 
REMARK    2  A    between atoms: C_7  and  O_8 
REMARK    3  A    between atoms: C_10  and  O_11 
REMARK    4  A    between atoms: C_16  and  C_18 
REMARK    5  A    between atoms: C_21  and  O_22 
ROOT
HETATM    1  O   UNK N   1      37.779  44.430  47.280  0.00  0.00    -0.287 OA
HETATM    2  C   UNK N   1      38.622  45.304  47.290  0.00  0.00     0.190 A 
HETATM    3  C   UNK N   1      39.644  45.358  48.276  0.00  0.00     0.084 A 
HETATM    4  C   UNK N   1      39.791  44.424  49.357  0.00  0.00     0.118 A 
HETATM    5  C   UNK N   1      40.835  44.607  50.293  0.00  0.00     0.133 A 
HETATM    6  C   UNK N   1      41.725  45.682  50.178  0.00  0.00     0.106 A 
HETATM    7  C   UNK N   1      41.589  46.578  49.112  0.00  0.00     0.078 A 
HETATM    8  C   UNK N   1      40.574  46.423  48.175  0.00  0.00     0.096 A 
HETATM    9  O   UNK N   1      40.494  47.311  47.192  0.00  0.00    -0.309 OA
HETATM   10  C   UNK N   1      39.538  47.296  46.273  0.00  0.00     0.090 A 
HETATM   11  C   UNK N   1      38.569  46.286  46.302  0.00  0.00     0.094 A 
ENDROOT
BRANCH  10  12
HETATM   12  C   UNK N   1      39.531  48.365  45.246  0.00  0.00    -0.002 A 
HETATM   13  C   UNK N   1      40.510  49.372  45.289  0.00  0.00     0.017 A 
HETATM   14  C   UNK N   1      40.522  50.390  44.331  0.00  0.00     0.037 A 
HETATM   15  C   UNK N   1      39.543  50.436  43.333  0.00  0.00     0.068 A 
HETATM   16  C   UNK N   1      38.550  49.437  43.298  0.00  0.00     0.037 A 
HETATM   17  C   UNK N   1      38.551  48.408  44.238  0.00  0.00     0.017 A 
BRANCH  15  18
HETATM   18  O   UNK N   1      39.580  51.449  42.428  0.00  0.00    -0.356 OA
HETATM   19  C   UNK N   1      40.046  52.721  42.693  0.00  0.00     0.210 C 
ENDBRANCH  15  18
ENDBRANCH  10  12
BRANCH   4  20
HETATM   20  O   UNK N   1      38.972  43.361  49.541  0.00  0.00    -0.357 OA
HETATM   21  H   UNK N   1      38.923  42.796  50.317  0.00  0.00     0.218 HD
ENDBRANCH   4  20
BRANCH   6  22
HETATM   22  O   UNK N   1      42.704  45.827  51.112  0.00  0.00    -0.353 OA
HETATM   23  C   UNK N   1      42.498  45.848  52.478  0.00  0.00     0.210 C 
ENDBRANCH   6  22
BRANCH   5  24
HETATM   24  O   UNK N   1      40.989  43.746  51.326  0.00  0.00    -0.356 OA
HETATM   25  H   UNK N   1      40.243  43.405  51.838  0.00  0.00     0.218 HD
ENDBRANCH   5  24
TORSDOF 5
ENDMDL
MODEL 6
REMARK VINA RESULT:      -5.8     12.109     15.687
REMARK  5 active torsions:
REMARK  status: ('A' for Active; 'I' for Inactive)
REMARK    1  A    between atoms: C_4  and  O_5 
REMARK    2  A    between atoms: C_7  and  O_8 
REMARK    3  A    between atoms: C_10  and  O_11 
REMARK    4  A    between atoms: C_16  and  C_18 
REMARK    5  A    between atoms: C_21  and  O_22 
ROOT
HETATM    1  O   UNK N   1      29.970  53.765  37.389  0.00  0.00    -0.287 OA
HETATM    2  C   UNK N   1      29.599  53.439  38.499  0.00  0.00     0.190 A 
HETATM    3  C   UNK N   1      28.423  52.668  38.707  0.00  0.00     0.084 A 
HETATM    4  C   UNK N   1      27.549  52.207  37.665  0.00  0.00     0.118 A 
HETATM    5  C   UNK N   1      26.390  51.473  38.008  0.00  0.00     0.133 A 
HETATM    6  C   UNK N   1      26.088  51.187  39.345  0.00  0.00     0.106 A 
HETATM    7  C   UNK N   1      26.954  51.622  40.355  0.00  0.00     0.078 A 
HETATM    8  C   UNK N   1      28.101  52.344  40.050  0.00  0.00     0.096 A 
HETATM    9  O   UNK N   1      28.877  52.734  41.053  0.00  0.00    -0.309 OA
HETATM   10  C   UNK N   1      29.966  53.472  40.887  0.00  0.00     0.090 A 
HETATM   11  C   UNK N   1      30.355  53.849  39.596  0.00  0.00     0.094 A 
ENDROOT
BRANCH  10  12
HETATM   12  C   UNK N   1      30.731  53.879  42.090  0.00  0.00    -0.002 A 
HETATM   13  C   UNK N   1      30.757  55.232  42.469  0.00  0.00     0.017 A 
HETATM   14  C   UNK N   1      31.473  55.638  43.599  0.00  0.00     0.037 A 
HETATM   15  C   UNK N   1      32.196  54.707  44.352  0.00  0.00     0.068 A 
HETATM   16  C   UNK N   1      32.186  53.352  43.964  0.00  0.00     0.037 A 
HETATM   17  C   UNK N   1      31.454  52.943  42.852  0.00  0.00     0.017 A 
BRANCH  15  18
HETATM   18  O   UNK N   1      32.891  55.143  45.436  0.00  0.00    -0.356 OA
HETATM   19  C   UNK N   1      34.058  55.877  45.376  0.00  0.00     0.210 C 
ENDBRANCH  15  18
ENDBRANCH  10  12
BRANCH   4  20
HETATM   20  O   UNK N   1      27.767  52.443  36.350  0.00  0.00    -0.357 OA
HETATM   21  H   UNK N   1      28.484  52.955  35.965  0.00  0.00     0.218 HD
ENDBRANCH   4  20
BRANCH   6  22
HETATM   22  O   UNK N   1      24.954  50.491  39.628  0.00  0.00    -0.353 OA
HETATM   23  C   UNK N   1      24.724  49.796  40.800  0.00  0.00     0.210 C 
ENDBRANCH   6  22
BRANCH   5  24
HETATM   24  O   UNK N   1      25.546  51.036  37.046  0.00  0.00    -0.356 OA
HETATM   25  H   UNK N   1      25.853  50.602  36.238  0.00  0.00     0.218 HD
ENDBRANCH   5  24
TORSDOF 5
ENDMDL
MODEL 7
REMARK VINA RESULT:      -5.6     11.695     15.861
REMARK  5 active torsions:
REMARK  status: ('A' for Active; 'I' for Inactive)
REMARK    1  A    between atoms: C_4  and  O_5 
REMARK    2  A    between atoms: C_7  and  O_8 
REMARK    3  A    between atoms: C_10  and  O_11 
REMARK    4  A    between atoms: C_16  and  C_18 
REMARK    5  A    between atoms: C_21  and  O_22 
ROOT
HETATM    1  O   UNK N   1      30.059  57.407  39.391  0.00  0.00    -0.287 OA
HETATM    2  C   UNK N   1      29.709  56.826  40.399  0.00  0.00     0.190 A 
HETATM    3  C   UNK N   1      28.359  56.828  40.842  0.00  0.00     0.084 A 
HETATM    4  C   UNK N   1      27.279  57.508  40.182  0.00  0.00     0.118 A 
HETATM    5  C   UNK N   1      25.983  57.457  40.745  0.00  0.00     0.133 A 
HETATM    6  C   UNK N   1      25.739  56.754  41.930  0.00  0.00     0.106 A 
HETATM    7  C   UNK N   1      26.791  56.077  42.559  0.00  0.00     0.078 A 
HETATM    8  C   UNK N   1      28.075  56.107  42.030  0.00  0.00     0.096 A 
HETATM    9  O   UNK N   1      29.031  55.452  42.677  0.00  0.00    -0.309 OA
HETATM   10  C   UNK N   1      30.301  55.453  42.297  0.00  0.00     0.090 A 
HETATM   11  C   UNK N   1      30.675  56.149  41.141  0.00  0.00     0.094 A 
ENDROOT
BRANCH  10  12
HETATM   12  C   UNK N   1      31.285  54.714  43.124  0.00  0.00    -0.002 A 
HETATM   13  C   UNK N   1      31.325  53.310  43.064  0.00  0.00     0.017 A 
HETATM   14  C   UNK N   1      32.243  52.594  43.836  0.00  0.00     0.037 A 
HETATM   15  C   UNK N   1      33.117  53.262  44.700  0.00  0.00     0.068 A 
HETATM   16  C   UNK N   1      33.068  54.669  44.775  0.00  0.00     0.037 A 
HETATM   17  C   UNK N   1      32.168  55.386  43.988  0.00  0.00     0.017 A 
BRANCH  15  18
HETATM   18  O   UNK N   1      33.986  52.529  45.444  0.00  0.00    -0.356 OA
HETATM   19  C   UNK N   1      34.420  51.260  45.120  0.00  0.00     0.210 C 
ENDBRANCH  15  18
ENDBRANCH  10  12
BRANCH   4  20
HETATM   20  O   UNK N   1      27.432  58.212  39.035  0.00  0.00    -0.357 OA
HETATM   21  H   UNK N   1      28.257  58.509  38.644  0.00  0.00     0.218 HD
ENDBRANCH   4  20
BRANCH   6  22
HETATM   22  O   UNK N   1      24.478  56.747  42.443  0.00  0.00    -0.353 OA
HETATM   23  C   UNK N   1      24.057  57.506  43.517  0.00  0.00     0.210 C 
ENDBRANCH   6  22
BRANCH   5  24
HETATM   24  O   UNK N   1      24.951  58.097  40.147  0.00  0.00    -0.356 OA
HETATM   25  H   UNK N   1      24.954  58.332  39.209  0.00  0.00     0.218 HD
ENDBRANCH   5  24
TORSDOF 5
ENDMDL
MODEL 8
REMARK VINA RESULT:      -5.5     14.337     15.506
REMARK  5 active torsions:
REMARK  status: ('A' for Active; 'I' for Inactive)
REMARK    1  A    between atoms: C_4  and  O_5 
REMARK    2  A    between atoms: C_7  and  O_8 
REMARK    3  A    between atoms: C_10  and  O_11 
REMARK    4  A    between atoms: C_16  and  C_18 
REMARK    5  A    between atoms: C_21  and  O_22 
ROOT
HETATM    1  O   UNK N   1      49.044  57.709  53.538  0.00  0.00    -0.287 OA
HETATM    2  C   UNK N   1      48.971  57.039  54.548  0.00  0.00     0.190 A 
HETATM    3  C   UNK N   1      49.771  55.881  54.748  0.00  0.00     0.084 A 
HETATM    4  C   UNK N   1      50.724  55.370  53.803  0.00  0.00     0.118 A 
HETATM    5  C   UNK N   1      51.437  54.188  54.109  0.00  0.00     0.133 A 
HETATM    6  C   UNK N   1      51.229  53.515  55.319  0.00  0.00     0.106 A 
HETATM    7  C   UNK N   1      50.312  54.028  56.244  0.00  0.00     0.078 A 
HETATM    8  C   UNK N   1      49.598  55.188  55.973  0.00  0.00     0.096 A 
HETATM    9  O   UNK N   1      48.739  55.619  56.888  0.00  0.00    -0.309 OA
HETATM   10  C   UNK N   1      47.965  56.682  56.717  0.00  0.00     0.090 A 
HETATM   11  C   UNK N   1      48.060  57.422  55.532  0.00  0.00     0.094 A 
ENDROOT
BRANCH  10  12
HETATM   12  C   UNK N   1      47.016  57.044  57.796  0.00  0.00    -0.002 A 
HETATM   13  C   UNK N   1      46.968  56.265  58.966  0.00  0.00     0.017 A 
HETATM   14  C   UNK N   1      46.081  56.587  59.996  0.00  0.00     0.037 A 
HETATM   15  C   UNK N   1      45.208  57.672  59.866  0.00  0.00     0.068 A 
HETATM   16  C   UNK N   1      45.241  58.444  58.688  0.00  0.00     0.037 A 
HETATM   17  C   UNK N   1      46.142  58.139  57.670  0.00  0.00     0.017 A 
BRANCH  15  18
HETATM   18  O   UNK N   1      44.350  57.944  60.885  0.00  0.00    -0.356 OA
HETATM   19  C   UNK N   1      43.461  57.037  61.426  0.00  0.00     0.210 C 
ENDBRANCH  15  18
ENDBRANCH  10  12
BRANCH   4  20
HETATM   20  O   UNK N   1      50.982  55.959  52.611  0.00  0.00    -0.357 OA
HETATM   21  H   UNK N   1      50.560  55.771  51.769  0.00  0.00     0.218 HD
ENDBRANCH   4  20
BRANCH   6  22
HETATM   22  O   UNK N   1      51.926  52.372  55.563  0.00  0.00    -0.353 OA
HETATM   23  C   UNK N   1      51.499  51.345  56.384  0.00  0.00     0.210 C 
ENDBRANCH   6  22
BRANCH   5  24
HETATM   24  O   UNK N   1      52.333  53.681  53.232  0.00  0.00    -0.356 OA
HETATM   25  H   UNK N   1      53.169  54.121  53.025  0.00  0.00     0.218 HD
ENDBRANCH   5  24
TORSDOF 5
ENDMDL
MODEL 9
REMARK VINA RESULT:      -5.5     11.425     15.739
REMARK  5 active torsions:
REMARK  status: ('A' for Active; 'I' for Inactive)
REMARK    1  A    between atoms: C_4  and  O_5 
REMARK    2  A    between atoms: C_7  and  O_8 
REMARK    3  A    between atoms: C_10  and  O_11 
REMARK    4  A    between atoms: C_16  and  C_18 
REMARK    5  A    between atoms: C_21  and  O_22 
ROOT
HETATM    1  O   UNK N   1      28.800  58.263  41.267  0.00  0.00    -0.287 OA
HETATM    2  C   UNK N   1      28.822  57.059  41.426  0.00  0.00     0.190 A 
HETATM    3  C   UNK N   1      27.834  56.205  40.866  0.00  0.00     0.084 A 
HETATM    4  C   UNK N   1      26.716  56.647  40.081  0.00  0.00     0.118 A 
HETATM    5  C   UNK N   1      25.783  55.696  39.607  0.00  0.00     0.133 A 
HETATM    6  C   UNK N   1      25.938  54.333  39.889  0.00  0.00     0.106 A 
HETATM    7  C   UNK N   1      27.040  53.905  40.639  0.00  0.00     0.078 A 
HETATM    8  C   UNK N   1      27.974  54.816  41.117  0.00  0.00     0.096 A 
HETATM    9  O   UNK N   1      28.992  54.348  41.828  0.00  0.00    -0.309 OA
HETATM   10  C   UNK N   1      29.914  55.126  42.379  0.00  0.00     0.090 A 
HETATM   11  C   UNK N   1      29.849  56.512  42.194  0.00  0.00     0.094 A 
ENDROOT
BRANCH  10  12
HETATM   12  C   UNK N   1      30.983  54.489  43.184  0.00  0.00    -0.002 A 
HETATM   13  C   UNK N   1      31.295  53.135  42.973  0.00  0.00     0.017 A 
HETATM   14  C   UNK N   1      32.299  52.513  43.722  0.00  0.00     0.037 A 
HETATM   15  C   UNK N   1      32.988  53.224  44.710  0.00  0.00     0.068 A 
HETATM   16  C   UNK N   1      32.666  54.577  44.936  0.00  0.00     0.037 A 
HETATM   17  C   UNK N   1      31.682  55.204  44.174  0.00  0.00     0.017 A 
BRANCH  15  18
HETATM   18  O   UNK N   1      33.948  52.580  45.426  0.00  0.00    -0.356 OA
HETATM   19  C   UNK N   1      34.434  51.322  45.134  0.00  0.00     0.210 C 
ENDBRANCH  15  18
ENDBRANCH  10  12
BRANCH   4  20
HETATM   20  O   UNK N   1      26.493  57.945  39.766  0.00  0.00    -0.357 OA
HETATM   21  H   UNK N   1      26.820  58.418  38.996  0.00  0.00     0.218 HD
ENDBRANCH   4  20
BRANCH   6  22
HETATM   22  O   UNK N   1      25.006  53.456  39.425  0.00  0.00    -0.353 OA
HETATM   23  C   UNK N   1      25.288  52.307  38.712  0.00  0.00     0.210 C 
ENDBRANCH   6  22
BRANCH   5  24
HETATM   24  O   UNK N   1      24.717  56.088  38.873  0.00  0.00    -0.356 OA
HETATM   25  H   UNK N   1      23.809  56.041  39.203  0.00  0.00     0.218 HD
ENDBRANCH   5  24
TORSDOF 5
ENDMDL
