MODEL 1
REMARK VINA RESULT:      -5.2      0.000      0.000
REMARK  8 active torsions:
REMARK  status: ('A' for Active; 'I' for Inactive)
REMARK    1  A    between atoms: C_2  and  O_3 
REMARK    2  A    between atoms: C_2  and  C_25 
REMARK    3  A    between atoms: O_3  and  C_4 
REMARK    4  A    between atoms: C_6  and  O_7 
REMARK    5  A    between atoms: C_6  and  C_9 
REMARK    6  A    between atoms: C_16  and  O_17 
REMARK    7  A    between atoms: O_17  and  C_18 
REMARK    8  A    between atoms: C_28  and  O_29 
ROOT
HETATM    1  C   UNK N   1      31.183  42.916  59.943  0.00  0.00     0.163 C 
HETATM    2  C   UNK N   1      30.062  43.763  59.252  0.00  0.00     0.062 C 
HETATM    3  C   UNK N   1      30.231  43.930  57.693  0.00  0.00     0.068 C 
HETATM    4  C   UNK N   1      31.179  45.135  57.633  0.00  0.00     0.039 C 
HETATM    5  C   UNK N   1      30.552  46.113  58.612  0.00  0.00     0.012 C 
HETATM    6  C   UNK N   1      29.965  45.248  59.770  0.00  0.00    -0.032 C 
HETATM    7  C   UNK N   1      30.764  45.567  61.068  0.00  0.00     0.047 C 
HETATM    8  C   UNK N   1      30.344  44.843  62.353  0.00  0.00     0.161 C 
HETATM    9  C   UNK N   1      30.499  43.329  62.403  0.00  0.00    -0.056 C 
HETATM   10  C   UNK N   1      30.853  42.523  61.369  0.00  0.00     0.011 C 
HETATM   11  C   UNK N   1      30.181  42.676  63.731  0.00  0.00     0.046 C 
HETATM   12  C   UNK N   1      28.477  45.643  59.971  0.00  0.00     0.016 C 
ENDROOT
BRANCH   1  13
HETATM   13  O   UNK N   1      32.439  43.483  59.853  0.00  0.00    -0.308 OA
BRANCH  13  14
HETATM   14  C   UNK N   1      33.577  42.899  60.323  0.00  0.00     0.294 C 
HETATM   15  O   UNK N   1      33.882  41.766  59.977  0.00  0.00    -0.259 OA
BRANCH  14  16
HETATM   16  C   UNK N   1      34.457  43.654  61.243  0.00  0.00     0.039 A 
HETATM   17  C   UNK N   1      35.733  44.076  60.828  0.00  0.00     0.020 A 
HETATM   18  C   UNK N   1      36.558  44.787  61.703  0.00  0.00     0.037 A 
HETATM   19  C   UNK N   1      36.119  45.084  63.001  0.00  0.00     0.065 A 
HETATM   20  C   UNK N   1      34.850  44.670  63.416  0.00  0.00     0.037 A 
HETATM   21  C   UNK N   1      34.022  43.959  62.544  0.00  0.00     0.020 A 
BRANCH  19  22
HETATM   22  O   UNK N   1      36.909  45.766  63.855  0.00  0.00    -0.361 OA
HETATM   23  H   UNK N   1      37.007  45.498  64.779  0.00  0.00     0.217 HD
ENDBRANCH  19  22
ENDBRANCH  14  16
ENDBRANCH  13  14
ENDBRANCH   1  13
BRANCH   3  24
HETATM   24  O   UNK N   1      29.005  44.328  57.115  0.00  0.00    -0.389 OA
HETATM   25  H   UNK N   1      29.122  45.234  56.727  0.00  0.00     0.210 HD
ENDBRANCH   3  24
BRANCH   3  26
HETATM   26  C   UNK N   1      30.790  42.692  56.902  0.00  0.00     0.012 C 
HETATM   27  C   UNK N   1      29.802  42.170  55.838  0.00  0.00     0.012 C 
HETATM   28  C   UNK N   1      32.130  43.008  56.212  0.00  0.00     0.012 C 
ENDBRANCH   3  26
BRANCH   8  29
HETATM   29  O   UNK N   1      31.079  45.396  63.392  0.00  0.00    -0.312 OA
BRANCH  29  30
HETATM   30  C   UNK N   1      31.062  46.716  63.734  0.00  0.00     0.255 C 
HETATM   31  O   UNK N   1      30.013  47.285  64.004  0.00  0.00    -0.266 OA
HETATM   32  C   UNK N   1      32.342  47.483  63.761  0.00  0.00     0.126 C 
ENDBRANCH  29  30
ENDBRANCH   8  29
TORSDOF 8
ENDMDL
MODEL 2
REMARK VINA RESULT:      -5.1     27.625     30.107
REMARK  8 active torsions:
REMARK  status: ('A' for Active; 'I' for Inactive)
REMARK    1  A    between atoms: C_2  and  O_3 
REMARK    2  A    between atoms: C_2  and  C_25 
REMARK    3  A    between atoms: O_3  and  C_4 
REMARK    4  A    between atoms: C_6  and  O_7 
REMARK    5  A    between atoms: C_6  and  C_9 
REMARK    6  A    between atoms: C_16  and  O_17 
REMARK    7  A    between atoms: O_17  and  C_18 
REMARK    8  A    between atoms: C_28  and  O_29 
ROOT
HETATM    1  C   UNK N   1      50.170  57.005  40.822  0.00  0.00     0.163 C 
HETATM    2  C   UNK N   1      51.650  57.508  40.910  0.00  0.00     0.062 C 
HETATM    3  C   UNK N   1      52.459  57.409  39.559  0.00  0.00     0.068 C 
HETATM    4  C   UNK N   1      52.949  55.956  39.623  0.00  0.00     0.039 C 
HETATM    5  C   UNK N   1      53.484  55.837  41.040  0.00  0.00     0.012 C 
HETATM    6  C   UNK N   1      52.543  56.707  41.931  0.00  0.00    -0.032 C 
HETATM    7  C   UNK N   1      51.780  55.759  42.902  0.00  0.00     0.047 C 
HETATM    8  C   UNK N   1      50.805  56.402  43.897  0.00  0.00     0.161 C 
HETATM    9  C   UNK N   1      49.586  57.123  43.339  0.00  0.00    -0.056 C 
HETATM   10  C   UNK N   1      49.331  57.375  42.028  0.00  0.00     0.011 C 
HETATM   11  C   UNK N   1      48.597  57.638  44.362  0.00  0.00     0.046 C 
HETATM   12  C   UNK N   1      53.419  57.690  42.753  0.00  0.00     0.016 C 
ENDROOT
BRANCH   1  13
HETATM   13  O   UNK N   1      50.060  55.661  40.522  0.00  0.00    -0.308 OA
BRANCH  13  14
HETATM   14  C   UNK N   1      49.571  55.177  39.346  0.00  0.00     0.294 C 
HETATM   15  O   UNK N   1      50.175  54.305  38.735  0.00  0.00    -0.259 OA
BRANCH  14  16
HETATM   16  C   UNK N   1      48.292  55.700  38.818  0.00  0.00     0.039 A 
HETATM   17  C   UNK N   1      47.103  55.565  39.559  0.00  0.00     0.020 A 
HETATM   18  C   UNK N   1      45.899  56.060  39.053  0.00  0.00     0.037 A 
HETATM   19  C   UNK N   1      45.868  56.696  37.804  0.00  0.00     0.065 A 
HETATM   20  C   UNK N   1      47.047  56.836  37.066  0.00  0.00     0.037 A 
HETATM   21  C   UNK N   1      48.253  56.342  37.569  0.00  0.00     0.020 A 
BRANCH  19  22
HETATM   22  O   UNK N   1      44.710  57.175  37.304  0.00  0.00    -0.361 OA
HETATM   23  H   UNK N   1      43.884  57.130  37.806  0.00  0.00     0.217 HD
ENDBRANCH  19  22
ENDBRANCH  14  16
ENDBRANCH  13  14
ENDBRANCH   1  13
BRANCH   3  24
HETATM   24  O   UNK N   1      53.599  58.241  39.618  0.00  0.00    -0.389 OA
HETATM   25  H   UNK N   1      53.612  58.812  38.805  0.00  0.00     0.210 HD
ENDBRANCH   3  24
BRANCH   3  26
HETATM   26  C   UNK N   1      51.671  57.715  38.234  0.00  0.00     0.012 C 
HETATM   27  C   UNK N   1      51.833  59.177  37.770  0.00  0.00     0.012 C 
HETATM   28  C   UNK N   1      52.100  56.786  37.083  0.00  0.00     0.012 C 
ENDBRANCH   3  26
BRANCH   8  29
HETATM   29  O   UNK N   1      50.371  55.397  44.750  0.00  0.00    -0.312 OA
BRANCH  29  30
HETATM   30  C   UNK N   1      50.826  55.214  46.023  0.00  0.00     0.255 C 
HETATM   31  O   UNK N   1      50.751  54.122  46.569  0.00  0.00    -0.266 OA
HETATM   32  C   UNK N   1      51.409  56.369  46.766  0.00  0.00     0.126 C 
ENDBRANCH  29  30
ENDBRANCH   8  29
TORSDOF 8
ENDMDL
MODEL 3
REMARK VINA RESULT:      -5.0      2.516      6.790
REMARK  8 active torsions:
REMARK  status: ('A' for Active; 'I' for Inactive)
REMARK    1  A    between atoms: C_2  and  O_3 
REMARK    2  A    between atoms: C_2  and  C_25 
REMARK    3  A    between atoms: O_3  and  C_4 
REMARK    4  A    between atoms: C_6  and  O_7 
REMARK    5  A    between atoms: C_6  and  C_9 
REMARK    6  A    between atoms: C_16  and  O_17 
REMARK    7  A    between atoms: O_17  and  C_18 
REMARK    8  A    between atoms: C_28  and  O_29 
ROOT
HETATM    1  C   UNK N   1      31.099  45.078  58.366  0.00  0.00     0.163 C 
HETATM    2  C   UNK N   1      30.724  45.042  59.886  0.00  0.00     0.062 C 
HETATM    3  C   UNK N   1      31.156  43.725  60.638  0.00  0.00     0.068 C 
HETATM    4  C   UNK N   1      29.965  42.810  60.324  0.00  0.00     0.039 C 
HETATM    5  C   UNK N   1      28.766  43.697  60.612  0.00  0.00     0.012 C 
HETATM    6  C   UNK N   1      29.178  45.136  60.170  0.00  0.00    -0.032 C 
HETATM    7  C   UNK N   1      28.289  45.547  58.960  0.00  0.00     0.047 C 
HETATM    8  C   UNK N   1      28.503  46.944  58.367  0.00  0.00     0.161 C 
HETATM    9  C   UNK N   1      29.850  47.250  57.725  0.00  0.00    -0.056 C 
HETATM   10  C   UNK N   1      30.945  46.447  57.736  0.00  0.00     0.011 C 
HETATM   11  C   UNK N   1      29.970  48.601  57.053  0.00  0.00     0.046 C 
HETATM   12  C   UNK N   1      28.914  46.105  61.354  0.00  0.00     0.016 C 
ENDROOT
BRANCH   1  13
HETATM   13  O   UNK N   1      30.468  44.103  57.618  0.00  0.00    -0.308 OA
BRANCH  13  14
HETATM   14  C   UNK N   1      31.117  43.215  56.814  0.00  0.00     0.294 C 
HETATM   15  O   UNK N   1      32.306  43.357  56.566  0.00  0.00    -0.259 OA
BRANCH  14  16
HETATM   16  C   UNK N   1      30.377  42.062  56.255  0.00  0.00     0.039 A 
HETATM   17  C   UNK N   1      29.599  41.238  57.090  0.00  0.00     0.020 A 
HETATM   18  C   UNK N   1      28.905  40.150  56.555  0.00  0.00     0.037 A 
HETATM   19  C   UNK N   1      28.978  39.873  55.183  0.00  0.00     0.065 A 
HETATM   20  C   UNK N   1      29.746  40.692  54.350  0.00  0.00     0.037 A 
HETATM   21  C   UNK N   1      30.442  41.780  54.881  0.00  0.00     0.020 A 
BRANCH  19  22
HETATM   22  O   UNK N   1      28.315  38.823  54.657  0.00  0.00    -0.361 OA
HETATM   23  H   UNK N   1      28.401  38.585  53.723  0.00  0.00     0.217 HD
ENDBRANCH  19  22
ENDBRANCH  14  16
ENDBRANCH  13  14
ENDBRANCH   1  13
BRANCH   3  24
HETATM   24  O   UNK N   1      31.160  43.946  62.034  0.00  0.00    -0.389 OA
HETATM   25  H   UNK N   1      31.346  43.083  62.487  0.00  0.00     0.210 HD
ENDBRANCH   3  24
BRANCH   3  26
HETATM   26  C   UNK N   1      32.528  43.084  60.219  0.00  0.00     0.012 C 
HETATM   27  C   UNK N   1      33.639  43.322  61.262  0.00  0.00     0.012 C 
HETATM   28  C   UNK N   1      32.403  41.569  59.975  0.00  0.00     0.012 C 
ENDBRANCH   3  26
BRANCH   8  29
HETATM   29  O   UNK N   1      27.508  47.144  57.420  0.00  0.00    -0.312 OA
BRANCH  29  30
HETATM   30  C   UNK N   1      26.267  47.637  57.695  0.00  0.00     0.255 C 
HETATM   31  O   UNK N   1      25.307  47.360  56.990  0.00  0.00    -0.266 OA
HETATM   32  C   UNK N   1      26.082  48.543  58.867  0.00  0.00     0.126 C 
ENDBRANCH  29  30
ENDBRANCH   8  29
TORSDOF 8
ENDMDL
MODEL 4
REMARK VINA RESULT:      -5.0     26.989     29.430
REMARK  8 active torsions:
REMARK  status: ('A' for Active; 'I' for Inactive)
REMARK    1  A    between atoms: C_2  and  O_3 
REMARK    2  A    between atoms: C_2  and  C_25 
REMARK    3  A    between atoms: O_3  and  C_4 
REMARK    4  A    between atoms: C_6  and  O_7 
REMARK    5  A    between atoms: C_6  and  C_9 
REMARK    6  A    between atoms: C_16  and  O_17 
REMARK    7  A    between atoms: O_17  and  C_18 
REMARK    8  A    between atoms: C_28  and  O_29 
ROOT
HETATM    1  C   UNK N   1      50.129  58.030  41.459  0.00  0.00     0.163 C 
HETATM    2  C   UNK N   1      51.152  56.848  41.368  0.00  0.00     0.062 C 
HETATM    3  C   UNK N   1      51.087  56.025  40.025  0.00  0.00     0.068 C 
HETATM    4  C   UNK N   1      49.966  55.029  40.351  0.00  0.00     0.039 C 
HETATM    5  C   UNK N   1      50.346  54.527  41.733  0.00  0.00     0.012 C 
HETATM    6  C   UNK N   1      50.966  55.749  42.481  0.00  0.00    -0.032 C 
HETATM    7  C   UNK N   1      50.023  56.128  43.660  0.00  0.00     0.047 C 
HETATM    8  C   UNK N   1      50.446  57.299  44.555  0.00  0.00     0.161 C 
HETATM    9  C   UNK N   1      50.533  58.684  43.929  0.00  0.00    -0.056 C 
HETATM   10  C   UNK N   1      50.399  58.979  42.610  0.00  0.00     0.011 C 
HETATM   11  C   UNK N   1      50.841  59.821  44.879  0.00  0.00     0.046 C 
HETATM   12  C   UNK N   1      52.350  55.326  43.044  0.00  0.00     0.016 C 
ENDROOT
BRANCH   1  13
HETATM   13  O   UNK N   1      48.809  57.622  41.440  0.00  0.00    -0.308 OA
BRANCH  13  14
HETATM   14  C   UNK N   1      47.849  58.175  40.647  0.00  0.00     0.294 C 
HETATM   15  O   UNK N   1      47.467  59.320  40.843  0.00  0.00    -0.259 OA
BRANCH  14  16
HETATM   16  C   UNK N   1      47.281  57.386  39.532  0.00  0.00     0.039 A 
HETATM   17  C   UNK N   1      47.194  57.934  38.239  0.00  0.00     0.020 A 
HETATM   18  C   UNK N   1      46.654  57.184  37.191  0.00  0.00     0.037 A 
HETATM   19  C   UNK N   1      46.198  55.878  37.422  0.00  0.00     0.065 A 
HETATM   20  C   UNK N   1      46.287  55.328  38.704  0.00  0.00     0.037 A 
HETATM   21  C   UNK N   1      46.825  56.075  39.753  0.00  0.00     0.020 A 
BRANCH  19  22
HETATM   22  O   UNK N   1      45.672  55.146  36.418  0.00  0.00    -0.361 OA
HETATM   23  H   UNK N   1      45.044  55.526  35.789  0.00  0.00     0.217 HD
ENDBRANCH  19  22
ENDBRANCH  14  16
ENDBRANCH  13  14
ENDBRANCH   1  13
BRANCH   3  24
HETATM   24  O   UNK N   1      52.276  55.281  39.857  0.00  0.00    -0.389 OA
HETATM   25  H   UNK N   1      52.528  54.890  40.734  0.00  0.00     0.210 HD
ENDBRANCH   3  24
BRANCH   3  26
HETATM   26  C   UNK N   1      50.801  56.834  38.708  0.00  0.00     0.012 C 
HETATM   27  C   UNK N   1      52.054  57.555  38.169  0.00  0.00     0.012 C 
HETATM   28  C   UNK N   1      50.236  55.935  37.592  0.00  0.00     0.012 C 
ENDBRANCH   3  26
BRANCH   8  29
HETATM   29  O   UNK N   1      49.549  57.349  45.613  0.00  0.00    -0.312 OA
BRANCH  29  30
HETATM   30  C   UNK N   1      48.193  57.320  45.479  0.00  0.00     0.255 C 
HETATM   31  O   UNK N   1      47.567  58.327  45.179  0.00  0.00    -0.266 OA
HETATM   32  C   UNK N   1      47.459  56.042  45.718  0.00  0.00     0.126 C 
ENDBRANCH  29  30
ENDBRANCH   8  29
TORSDOF 8
ENDMDL
MODEL 5
REMARK VINA RESULT:      -4.9      2.979      6.985
REMARK  8 active torsions:
REMARK  status: ('A' for Active; 'I' for Inactive)
REMARK    1  A    between atoms: C_2  and  O_3 
REMARK    2  A    between atoms: C_2  and  C_25 
REMARK    3  A    between atoms: O_3  and  C_4 
REMARK    4  A    between atoms: C_6  and  O_7 
REMARK    5  A    between atoms: C_6  and  C_9 
REMARK    6  A    between atoms: C_16  and  O_17 
REMARK    7  A    between atoms: O_17  and  C_18 
REMARK    8  A    between atoms: C_28  and  O_29 
ROOT
HETATM    1  C   UNK N   1      29.211  45.546  58.729  0.00  0.00     0.163 C 
HETATM    2  C   UNK N   1      28.970  45.041  60.192  0.00  0.00     0.062 C 
HETATM    3  C   UNK N   1      28.452  46.146  61.191  0.00  0.00     0.068 C 
HETATM    4  C   UNK N   1      29.777  46.783  61.629  0.00  0.00     0.039 C 
HETATM    5  C   UNK N   1      30.649  45.578  61.942  0.00  0.00     0.012 C 
HETATM    6  C   UNK N   1      30.261  44.483  60.901  0.00  0.00    -0.032 C 
HETATM    7  C   UNK N   1      31.489  44.233  59.977  0.00  0.00     0.047 C 
HETATM    8  C   UNK N   1      31.345  43.170  58.881  0.00  0.00     0.161 C 
HETATM    9  C   UNK N   1      30.325  43.414  57.778  0.00  0.00    -0.056 C 
HETATM   10  C   UNK N   1      29.421  44.427  57.729  0.00  0.00     0.011 C 
HETATM   11  C   UNK N   1      30.303  42.394  56.660  0.00  0.00     0.046 C 
HETATM   12  C   UNK N   1      29.920  43.177  61.669  0.00  0.00     0.016 C 
ENDROOT
BRANCH   1  13
HETATM   13  O   UNK N   1      30.201  46.505  58.631  0.00  0.00    -0.308 OA
BRANCH  13  14
HETATM   14  C   UNK N   1      30.209  47.503  57.704  0.00  0.00     0.294 C 
HETATM   15  O   UNK N   1      30.976  47.460  56.753  0.00  0.00    -0.259 OA
BRANCH  14  16
HETATM   16  C   UNK N   1      29.268  48.636  57.845  0.00  0.00     0.039 A 
HETATM   17  C   UNK N   1      29.612  49.761  58.619  0.00  0.00     0.020 A 
HETATM   18  C   UNK N   1      28.717  50.826  58.749  0.00  0.00     0.037 A 
HETATM   19  C   UNK N   1      27.471  50.781  58.108  0.00  0.00     0.065 A 
HETATM   20  C   UNK N   1      27.127  49.668  57.335  0.00  0.00     0.037 A 
HETATM   21  C   UNK N   1      28.018  48.602  57.203  0.00  0.00     0.020 A 
BRANCH  19  22
HETATM   22  O   UNK N   1      26.598  51.802  58.230  0.00  0.00    -0.361 OA
HETATM   23  H   UNK N   1      25.721  51.676  58.618  0.00  0.00     0.217 HD
ENDBRANCH  19  22
ENDBRANCH  14  16
ENDBRANCH  13  14
ENDBRANCH   1  13
BRANCH   3  24
HETATM   24  O   UNK N   1      27.880  45.536  62.330  0.00  0.00    -0.389 OA
HETATM   25  H   UNK N   1      27.876  46.197  63.070  0.00  0.00     0.210 HD
ENDBRANCH   3  24
BRANCH   3  26
HETATM   26  C   UNK N   1      27.442  47.206  60.618  0.00  0.00     0.012 C 
HETATM   27  C   UNK N   1      25.988  46.691  60.597  0.00  0.00     0.012 C 
HETATM   28  C   UNK N   1      27.482  48.525  61.412  0.00  0.00     0.012 C 
ENDBRANCH   3  26
BRANCH   8  29
HETATM   29  O   UNK N   1      32.595  43.012  58.299  0.00  0.00    -0.312 OA
BRANCH  29  30
HETATM   30  C   UNK N   1      33.734  42.708  58.984  0.00  0.00     0.255 C 
HETATM   31  O   UNK N   1      34.748  43.379  58.852  0.00  0.00    -0.266 OA
HETATM   32  C   UNK N   1      33.747  41.527  59.897  0.00  0.00     0.126 C 
ENDBRANCH  29  30
ENDBRANCH   8  29
TORSDOF 8
ENDMDL
MODEL 6
REMARK VINA RESULT:      -4.7      3.233      5.137
REMARK  8 active torsions:
REMARK  status: ('A' for Active; 'I' for Inactive)
REMARK    1  A    between atoms: C_2  and  O_3 
REMARK    2  A    between atoms: C_2  and  C_25 
REMARK    3  A    between atoms: O_3  and  C_4 
REMARK    4  A    between atoms: C_6  and  O_7 
REMARK    5  A    between atoms: C_6  and  C_9 
REMARK    6  A    between atoms: C_16  and  O_17 
REMARK    7  A    between atoms: O_17  and  C_18 
REMARK    8  A    between atoms: C_28  and  O_29 
ROOT
HETATM    1  C   UNK N   1      28.422  40.993  59.974  0.00  0.00     0.163 C 
HETATM    2  C   UNK N   1      27.856  40.767  58.532  0.00  0.00     0.062 C 
HETATM    3  C   UNK N   1      27.566  39.260  58.169  0.00  0.00     0.068 C 
HETATM    4  C   UNK N   1      28.953  38.805  57.696  0.00  0.00     0.039 C 
HETATM    5  C   UNK N   1      29.379  39.922  56.761  0.00  0.00     0.012 C 
HETATM    6  C   UNK N   1      28.821  41.241  57.381  0.00  0.00    -0.032 C 
HETATM    7  C   UNK N   1      30.028  42.119  57.824  0.00  0.00     0.047 C 
HETATM    8  C   UNK N   1      29.717  43.485  58.447  0.00  0.00     0.161 C 
HETATM    9  C   UNK N   1      28.966  43.513  59.771  0.00  0.00    -0.056 C 
HETATM   10  C   UNK N   1      28.418  42.445  60.406  0.00  0.00     0.011 C 
HETATM   11  C   UNK N   1      28.786  44.879  60.400  0.00  0.00     0.046 C 
HETATM   12  C   UNK N   1      28.013  41.991  56.288  0.00  0.00     0.016 C 
ENDROOT
BRANCH   1  13
HETATM   13  O   UNK N   1      29.656  40.407  60.183  0.00  0.00    -0.308 OA
BRANCH  13  14
HETATM   14  C   UNK N   1      30.466  40.686  61.242  0.00  0.00     0.294 C 
HETATM   15  O   UNK N   1      30.171  40.305  62.366  0.00  0.00    -0.259 OA
BRANCH  14  16
HETATM   16  C   UNK N   1      31.720  41.441  61.022  0.00  0.00     0.039 A 
HETATM   17  C   UNK N   1      31.977  42.626  61.737  0.00  0.00     0.020 A 
HETATM   18  C   UNK N   1      33.162  43.334  61.522  0.00  0.00     0.037 A 
HETATM   19  C   UNK N   1      34.103  42.868  60.593  0.00  0.00     0.065 A 
HETATM   20  C   UNK N   1      33.853  41.689  59.884  0.00  0.00     0.037 A 
HETATM   21  C   UNK N   1      32.670  40.979  60.096  0.00  0.00     0.020 A 
BRANCH  19  22
HETATM   22  O   UNK N   1      35.248  43.546  60.375  0.00  0.00    -0.361 OA
HETATM   23  H   UNK N   1      35.515  43.819  59.487  0.00  0.00     0.217 HD
ENDBRANCH  19  22
ENDBRANCH  14  16
ENDBRANCH  13  14
ENDBRANCH   1  13
BRANCH   3  24
HETATM   24  O   UNK N   1      26.697  39.190  57.057  0.00  0.00    -0.389 OA
HETATM   25  H   UNK N   1      27.163  39.578  56.271  0.00  0.00     0.210 HD
ENDBRANCH   3  24
BRANCH   3  26
HETATM   26  C   UNK N   1      26.998  38.348  59.317  0.00  0.00     0.012 C 
HETATM   27  C   UNK N   1      25.485  38.546  59.540  0.00  0.00     0.012 C 
HETATM   28  C   UNK N   1      27.262  36.855  59.050  0.00  0.00     0.012 C 
ENDBRANCH   3  26
BRANCH   8  29
HETATM   29  O   UNK N   1      30.927  44.144  58.613  0.00  0.00    -0.312 OA
BRANCH  29  30
HETATM   30  C   UNK N   1      31.469  45.006  57.706  0.00  0.00     0.255 C 
HETATM   31  O   UNK N   1      32.434  44.683  57.027  0.00  0.00    -0.266 OA
HETATM   32  C   UNK N   1      30.885  46.370  57.551  0.00  0.00     0.126 C 
ENDBRANCH  29  30
ENDBRANCH   8  29
TORSDOF 8
ENDMDL
MODEL 7
REMARK VINA RESULT:      -4.7      2.375      4.885
REMARK  8 active torsions:
REMARK  status: ('A' for Active; 'I' for Inactive)
REMARK    1  A    between atoms: C_2  and  O_3 
REMARK    2  A    between atoms: C_2  and  C_25 
REMARK    3  A    between atoms: O_3  and  C_4 
REMARK    4  A    between atoms: C_6  and  O_7 
REMARK    5  A    between atoms: C_6  and  C_9 
REMARK    6  A    between atoms: C_16  and  O_17 
REMARK    7  A    between atoms: O_17  and  C_18 
REMARK    8  A    between atoms: C_28  and  O_29 
ROOT
HETATM    1  C   UNK N   1      31.229  43.135  57.837  0.00  0.00     0.163 C 
HETATM    2  C   UNK N   1      30.502  41.748  57.820  0.00  0.00     0.062 C 
HETATM    3  C   UNK N   1      29.388  41.605  56.712  0.00  0.00     0.068 C 
HETATM    4  C   UNK N   1      28.184  42.227  57.432  0.00  0.00     0.039 C 
HETATM    5  C   UNK N   1      28.227  41.570  58.801  0.00  0.00     0.012 C 
HETATM    6  C   UNK N   1      29.738  41.405  59.154  0.00  0.00    -0.032 C 
HETATM    7  C   UNK N   1      30.056  42.320  60.373  0.00  0.00     0.047 C 
HETATM    8  C   UNK N   1      31.490  42.305  60.914  0.00  0.00     0.161 C 
HETATM    9  C   UNK N   1      32.603  42.808  60.004  0.00  0.00    -0.056 C 
HETATM   10  C   UNK N   1      32.477  43.154  58.697  0.00  0.00     0.011 C 
HETATM   11  C   UNK N   1      33.981  42.881  60.625  0.00  0.00     0.046 C 
HETATM   12  C   UNK N   1      29.991  39.923  59.543  0.00  0.00     0.016 C 
ENDROOT
BRANCH   1  13
HETATM   13  O   UNK N   1      30.394  44.194  58.135  0.00  0.00    -0.308 OA
BRANCH  13  14
HETATM   14  C   UNK N   1      30.758  45.504  58.049  0.00  0.00     0.294 C 
HETATM   15  O   UNK N   1      31.482  45.888  57.141  0.00  0.00    -0.259 OA
BRANCH  14  16
HETATM   16  C   UNK N   1      30.256  46.468  59.054  0.00  0.00     0.039 A 
HETATM   17  C   UNK N   1      30.232  46.130  60.420  0.00  0.00     0.020 A 
HETATM   18  C   UNK N   1      29.755  47.044  61.362  0.00  0.00     0.037 A 
HETATM   19  C   UNK N   1      29.300  48.305  60.953  0.00  0.00     0.065 A 
HETATM   20  C   UNK N   1      29.326  48.646  59.597  0.00  0.00     0.037 A 
HETATM   21  C   UNK N   1      29.802  47.735  58.653  0.00  0.00     0.020 A 
BRANCH  19  22
HETATM   22  O   UNK N   1      28.834  49.194  61.854  0.00  0.00    -0.361 OA
HETATM   23  H   UNK N   1      29.306  50.016  62.047  0.00  0.00     0.217 HD
ENDBRANCH  19  22
ENDBRANCH  14  16
ENDBRANCH  13  14
ENDBRANCH   1  13
BRANCH   3  24
HETATM   24  O   UNK N   1      29.093  40.240  56.499  0.00  0.00    -0.389 OA
HETATM   25  H   UNK N   1      28.127  40.157  56.289  0.00  0.00     0.210 HD
ENDBRANCH   3  24
BRANCH   3  26
HETATM   26  C   UNK N   1      29.672  42.288  55.325  0.00  0.00     0.012 C 
HETATM   27  C   UNK N   1      30.784  41.576  54.528  0.00  0.00     0.012 C 
HETATM   28  C   UNK N   1      28.408  42.355  54.448  0.00  0.00     0.012 C 
ENDBRANCH   3  26
BRANCH   8  29
HETATM   29  O   UNK N   1      31.496  43.060  62.078  0.00  0.00    -0.312 OA
BRANCH  29  30
HETATM   30  C   UNK N   1      30.625  42.892  63.113  0.00  0.00     0.255 C 
HETATM   31  O   UNK N   1      30.549  41.826  63.707  0.00  0.00    -0.266 OA
HETATM   32  C   UNK N   1      29.737  44.023  63.515  0.00  0.00     0.126 C 
ENDBRANCH  29  30
ENDBRANCH   8  29
TORSDOF 8
ENDMDL
MODEL 8
REMARK VINA RESULT:      -4.5      2.622      6.376
REMARK  8 active torsions:
REMARK  status: ('A' for Active; 'I' for Inactive)
REMARK    1  A    between atoms: C_2  and  O_3 
REMARK    2  A    between atoms: C_2  and  C_25 
REMARK    3  A    between atoms: O_3  and  C_4 
REMARK    4  A    between atoms: C_6  and  O_7 
REMARK    5  A    between atoms: C_6  and  C_9 
REMARK    6  A    between atoms: C_16  and  O_17 
REMARK    7  A    between atoms: O_17  and  C_18 
REMARK    8  A    between atoms: C_28  and  O_29 
ROOT
HETATM    1  C   UNK N   1      30.686  44.092  58.760  0.00  0.00     0.163 C 
HETATM    2  C   UNK N   1      31.342  44.188  60.179  0.00  0.00     0.062 C 
HETATM    3  C   UNK N   1      31.609  42.798  60.875  0.00  0.00     0.068 C 
HETATM    4  C   UNK N   1      30.244  42.534  61.524  0.00  0.00     0.039 C 
HETATM    5  C   UNK N   1      29.919  43.861  62.188  0.00  0.00     0.012 C 
HETATM    6  C   UNK N   1      30.475  44.967  61.238  0.00  0.00    -0.032 C 
HETATM    7  C   UNK N   1      29.268  45.771  60.669  0.00  0.00     0.047 C 
HETATM    8  C   UNK N   1      29.579  46.934  59.719  0.00  0.00     0.161 C 
HETATM    9  C   UNK N   1      30.238  46.611  58.385  0.00  0.00    -0.056 C 
HETATM   10  C   UNK N   1      30.707  45.398  57.993  0.00  0.00     0.011 C 
HETATM   11  C   UNK N   1      30.416  47.778  57.437  0.00  0.00     0.046 C 
HETATM   12  C   UNK N   1      31.379  45.917  62.069  0.00  0.00     0.016 C 
ENDROOT
BRANCH   1  13
HETATM   13  O   UNK N   1      29.423  43.532  58.772  0.00  0.00    -0.308 OA
BRANCH  13  14
HETATM   14  C   UNK N   1      28.728  43.189  57.652  0.00  0.00     0.294 C 
HETATM   15  O   UNK N   1      27.820  43.900  57.243  0.00  0.00    -0.259 OA
BRANCH  14  16
HETATM   16  C   UNK N   1      29.091  41.957  56.917  0.00  0.00     0.039 A 
HETATM   17  C   UNK N   1      28.873  40.691  57.493  0.00  0.00     0.020 A 
HETATM   18  C   UNK N   1      29.221  39.532  56.794  0.00  0.00     0.037 A 
HETATM   19  C   UNK N   1      29.786  39.623  55.515  0.00  0.00     0.065 A 
HETATM   20  C   UNK N   1      29.999  40.878  54.938  0.00  0.00     0.037 A 
HETATM   21  C   UNK N   1      29.654  42.039  55.633  0.00  0.00     0.020 A 
BRANCH  19  22
HETATM   22  O   UNK N   1      30.128  38.510  54.833  0.00  0.00    -0.361 OA
HETATM   23  H   UNK N   1      30.567  37.765  55.267  0.00  0.00     0.217 HD
ENDBRANCH  19  22
ENDBRANCH  14  16
ENDBRANCH  13  14
ENDBRANCH   1  13
BRANCH   3  24
HETATM   24  O   UNK N   1      32.549  42.954  61.917  0.00  0.00    -0.389 OA
HETATM   25  H   UNK N   1      33.460  42.928  61.524  0.00  0.00     0.210 HD
ENDBRANCH   3  24
BRANCH   3  26
HETATM   26  C   UNK N   1      32.068  41.615  59.947  0.00  0.00     0.012 C 
HETATM   27  C   UNK N   1      33.594  41.397  59.971  0.00  0.00     0.012 C 
HETATM   28  C   UNK N   1      31.379  40.290  60.324  0.00  0.00     0.012 C 
ENDBRANCH   3  26
BRANCH   8  29
HETATM   29  O   UNK N   1      28.381  47.590  59.472  0.00  0.00    -0.312 OA
BRANCH  29  30
HETATM   30  C   UNK N   1      28.028  48.786  60.023  0.00  0.00     0.255 C 
HETATM   31  O   UNK N   1      26.866  49.169  60.009  0.00  0.00    -0.266 OA
HETATM   32  C   UNK N   1      29.079  49.650  60.637  0.00  0.00     0.126 C 
ENDBRANCH  29  30
ENDBRANCH   8  29
TORSDOF 8
ENDMDL
MODEL 9
REMARK VINA RESULT:      -4.5     14.647     17.921
REMARK  8 active torsions:
REMARK  status: ('A' for Active; 'I' for Inactive)
REMARK    1  A    between atoms: C_2  and  O_3 
REMARK    2  A    between atoms: C_2  and  C_25 
REMARK    3  A    between atoms: O_3  and  C_4 
REMARK    4  A    between atoms: C_6  and  O_7 
REMARK    5  A    between atoms: C_6  and  C_9 
REMARK    6  A    between atoms: C_16  and  O_17 
REMARK    7  A    between atoms: O_17  and  C_18 
REMARK    8  A    between atoms: C_28  and  O_29 
ROOT
HETATM    1  C   UNK N   1      41.507  45.735  46.859  0.00  0.00     0.163 C 
HETATM    2  C   UNK N   1      40.427  46.092  47.935  0.00  0.00     0.062 C 
HETATM    3  C   UNK N   1      39.861  44.856  48.733  0.00  0.00     0.068 C 
HETATM    4  C   UNK N   1      38.755  44.381  47.781  0.00  0.00     0.039 C 
HETATM    5  C   UNK N   1      38.033  45.669  47.424  0.00  0.00     0.012 C 
HETATM    6  C   UNK N   1      39.134  46.773  47.347  0.00  0.00    -0.032 C 
HETATM    7  C   UNK N   1      39.233  47.259  45.872  0.00  0.00     0.047 C 
HETATM    8  C   UNK N   1      40.245  48.368  45.559  0.00  0.00     0.161 C 
HETATM    9  C   UNK N   1      41.723  48.065  45.758  0.00  0.00    -0.056 C 
HETATM   10  C   UNK N   1      42.245  46.942  46.316  0.00  0.00     0.011 C 
HETATM   11  C   UNK N   1      42.684  49.152  45.326  0.00  0.00     0.046 C 
HETATM   12  C   UNK N   1      38.702  47.958  48.252  0.00  0.00     0.016 C 
ENDROOT
BRANCH   1  13
HETATM   13  O   UNK N   1      41.029  44.934  45.840  0.00  0.00    -0.308 OA
BRANCH  13  14
HETATM   14  C   UNK N   1      41.783  44.493  44.795  0.00  0.00     0.294 C 
HETATM   15  O   UNK N   1      41.624  44.958  43.675  0.00  0.00    -0.259 OA
BRANCH  14  16
HETATM   16  C   UNK N   1      42.815  43.457  45.026  0.00  0.00     0.039 A 
HETATM   17  C   UNK N   1      42.685  42.543  46.089  0.00  0.00     0.020 A 
HETATM   18  C   UNK N   1      43.664  41.569  46.302  0.00  0.00     0.037 A 
HETATM   19  C   UNK N   1      44.781  41.496  45.458  0.00  0.00     0.065 A 
HETATM   20  C   UNK N   1      44.911  42.399  44.399  0.00  0.00     0.037 A 
HETATM   21  C   UNK N   1      43.935  43.374  44.182  0.00  0.00     0.020 A 
BRANCH  19  22
HETATM   22  O   UNK N   1      45.733  40.562  45.657  0.00  0.00    -0.361 OA
HETATM   23  H   UNK N   1      45.532  39.616  45.618  0.00  0.00     0.217 HD
ENDBRANCH  19  22
ENDBRANCH  14  16
ENDBRANCH  13  14
ENDBRANCH   1  13
BRANCH   3  24
HETATM   24  O   UNK N   1      39.235  45.294  49.921  0.00  0.00    -0.389 OA
HETATM   25  H   UNK N   1      38.725  44.534  50.305  0.00  0.00     0.210 HD
ENDBRANCH   3  24
BRANCH   3  26
HETATM   26  C   UNK N   1      40.877  43.709  49.085  0.00  0.00     0.012 C 
HETATM   27  C   UNK N   1      42.207  44.247  49.650  0.00  0.00     0.012 C 
HETATM   28  C   UNK N   1      40.286  42.708  50.094  0.00  0.00     0.012 C 
ENDBRANCH   3  26
BRANCH   8  29
HETATM   29  O   UNK N   1      40.045  48.743  44.238  0.00  0.00    -0.312 OA
BRANCH  29  30
HETATM   30  C   UNK N   1      39.358  49.853  43.844  0.00  0.00     0.255 C 
HETATM   31  O   UNK N   1      38.158  49.804  43.614  0.00  0.00    -0.266 OA
HETATM   32  C   UNK N   1      40.088  51.144  43.674  0.00  0.00     0.126 C 
ENDBRANCH  29  30
ENDBRANCH   8  29
TORSDOF 8
ENDMDL
