MODEL 1
REMARK VINA RESULT:      -7.8      0.000      0.000
REMARK  6 active torsions:
REMARK  status: ('A' for Active; 'I' for Inactive)
REMARK    1  A    between atoms: C_5  and  O_6 
REMARK    2  A    between atoms: O_6  and  C_7 
REMARK    3  A    between atoms: C_7  and  C_9 
REMARK    4  A    between atoms: C_12  and  O_13 
REMARK    5  A    between atoms: C_18  and  O_19 
REMARK    6  A    between atoms: C_18  and  C_21 
ROOT
HETATM    1  O   UNK N   1      43.091  47.507  49.478  0.00  0.00    -0.293 OA
HETATM    2  C   UNK N   1      42.262  47.286  48.606  0.00  0.00     0.155 C 
HETATM    3  C   UNK N   1      42.565  47.715  47.207  0.00  0.00    -0.018 C 
HETATM    4  C   UNK N   1      41.840  47.373  46.111  0.00  0.00     0.016 C 
HETATM    5  C   UNK N   1      40.605  46.497  46.053  0.00  0.00     0.163 C 
HETATM    6  C   UNK N   1      40.645  45.187  46.865  0.00  0.00     0.062 C 
HETATM    7  C   UNK N   1      41.746  44.141  46.525  0.00  0.00     0.068 C 
HETATM    8  C   UNK N   1      41.604  43.204  47.750  0.00  0.00     0.039 C 
HETATM    9  C   UNK N   1      41.575  44.200  48.906  0.00  0.00     0.013 C 
HETATM   10  C   UNK N   1      40.599  45.300  48.429  0.00  0.00    -0.028 C 
HETATM   11  C   UNK N   1      40.950  46.687  49.021  0.00  0.00     0.093 C 
HETATM   12  C   UNK N   1      39.166  44.969  48.934  0.00  0.00     0.016 C 
HETATM   13  C   UNK N   1      43.791  48.582  47.011  0.00  0.00     0.052 C 
ENDROOT
BRANCH   5  14
HETATM   14  O   UNK N   1      39.467  47.217  46.384  0.00  0.00    -0.308 OA
BRANCH  14  15
HETATM   15  C   UNK N   1      39.347  48.565  46.189  0.00  0.00     0.294 C 
HETATM   16  O   UNK N   1      39.422  49.336  47.136  0.00  0.00    -0.259 OA
BRANCH  15  17
HETATM   17  C   UNK N   1      39.167  49.104  44.823  0.00  0.00     0.039 A 
HETATM   18  C   UNK N   1      40.008  50.129  44.348  0.00  0.00     0.020 A 
HETATM   19  C   UNK N   1      39.841  50.637  43.057  0.00  0.00     0.037 A 
HETATM   20  C   UNK N   1      38.834  50.128  42.225  0.00  0.00     0.065 A 
HETATM   21  C   UNK N   1      37.996  49.109  42.693  0.00  0.00     0.037 A 
HETATM   22  C   UNK N   1      38.162  48.597  43.984  0.00  0.00     0.020 A 
BRANCH  20  23
HETATM   23  O   UNK N   1      38.664  50.611  40.979  0.00  0.00    -0.361 OA
HETATM   24  H   UNK N   1      37.929  50.324  40.419  0.00  0.00     0.217 HD
ENDBRANCH  20  23
ENDBRANCH  15  17
ENDBRANCH  14  15
ENDBRANCH   5  14
BRANCH   7  25
HETATM   25  O   UNK N   1      43.001  44.792  46.555  0.00  0.00    -0.389 OA
HETATM   26  H   UNK N   1      43.720  44.109  46.554  0.00  0.00     0.210 HD
ENDBRANCH   7  25
BRANCH   7  27
HETATM   27  C   UNK N   1      41.578  43.433  45.125  0.00  0.00     0.012 C 
HETATM   28  C   UNK N   1      41.994  44.359  43.967  0.00  0.00     0.012 C 
HETATM   29  C   UNK N   1      42.349  42.103  44.971  0.00  0.00     0.012 C 
ENDBRANCH   7  27
TORSDOF 6
ENDMDL
MODEL 2
REMARK VINA RESULT:      -7.7      2.707      7.066
REMARK  6 active torsions:
REMARK  status: ('A' for Active; 'I' for Inactive)
REMARK    1  A    between atoms: C_5  and  O_6 
REMARK    2  A    between atoms: O_6  and  C_7 
REMARK    3  A    between atoms: C_7  and  C_9 
REMARK    4  A    between atoms: C_12  and  O_13 
REMARK    5  A    between atoms: C_18  and  O_19 
REMARK    6  A    between atoms: C_18  and  C_21 
ROOT
HETATM    1  O   UNK N   1      39.483  43.373  44.833  0.00  0.00    -0.293 OA
HETATM    2  C   UNK N   1      40.141  43.901  45.719  0.00  0.00     0.155 C 
HETATM    3  C   UNK N   1      41.624  43.985  45.554  0.00  0.00    -0.018 C 
HETATM    4  C   UNK N   1      42.457  44.703  46.350  0.00  0.00     0.016 C 
HETATM    5  C   UNK N   1      42.090  45.564  47.542  0.00  0.00     0.163 C 
HETATM    6  C   UNK N   1      40.880  46.504  47.370  0.00  0.00     0.062 C 
HETATM    7  C   UNK N   1      40.937  47.584  46.251  0.00  0.00     0.068 C 
HETATM    8  C   UNK N   1      39.454  48.034  46.245  0.00  0.00     0.039 C 
HETATM    9  C   UNK N   1      38.721  46.696  46.227  0.00  0.00     0.013 C 
HETATM   10  C   UNK N   1      39.456  45.850  47.292  0.00  0.00    -0.028 C 
HETATM   11  C   UNK N   1      39.421  44.338  46.962  0.00  0.00     0.093 C 
HETATM   12  C   UNK N   1      38.734  46.006  48.660  0.00  0.00     0.016 C 
HETATM   13  C   UNK N   1      42.225  43.222  44.393  0.00  0.00     0.052 C 
ENDROOT
BRANCH   5  14
HETATM   14  O   UNK N   1      41.924  44.793  48.682  0.00  0.00    -0.308 OA
BRANCH  14  15
HETATM   15  C   UNK N   1      42.259  45.222  49.935  0.00  0.00     0.294 C 
HETATM   16  O   UNK N   1      43.121  46.077  50.087  0.00  0.00    -0.259 OA
BRANCH  15  17
HETATM   17  C   UNK N   1      41.550  44.684  51.118  0.00  0.00     0.039 A 
HETATM   18  C   UNK N   1      41.878  45.140  52.409  0.00  0.00     0.020 A 
HETATM   19  C   UNK N   1      41.208  44.636  53.526  0.00  0.00     0.037 A 
HETATM   20  C   UNK N   1      40.204  43.671  53.368  0.00  0.00     0.065 A 
HETATM   21  C   UNK N   1      39.874  43.215  52.086  0.00  0.00     0.037 A 
HETATM   22  C   UNK N   1      40.542  43.720  50.966  0.00  0.00     0.020 A 
BRANCH  20  23
HETATM   23  O   UNK N   1      39.552  43.178  54.439  0.00  0.00    -0.361 OA
HETATM   24  H   UNK N   1      39.037  43.748  55.028  0.00  0.00     0.217 HD
ENDBRANCH  20  23
ENDBRANCH  15  17
ENDBRANCH  14  15
ENDBRANCH   5  14
BRANCH   7  25
HETATM   25  O   UNK N   1      41.255  46.944  45.031  0.00  0.00    -0.389 OA
HETATM   26  H   UNK N   1      42.210  46.679  45.044  0.00  0.00     0.210 HD
ENDBRANCH   7  25
BRANCH   7  27
HETATM   27  C   UNK N   1      41.980  48.742  46.499  0.00  0.00     0.012 C 
HETATM   28  C   UNK N   1      43.217  48.238  47.265  0.00  0.00     0.012 C 
HETATM   29  C   UNK N   1      42.471  49.461  45.223  0.00  0.00     0.012 C 
ENDBRANCH   7  27
TORSDOF 6
ENDMDL
MODEL 3
REMARK VINA RESULT:      -6.0      2.766      7.260
REMARK  6 active torsions:
REMARK  status: ('A' for Active; 'I' for Inactive)
REMARK    1  A    between atoms: C_5  and  O_6 
REMARK    2  A    between atoms: O_6  and  C_7 
REMARK    3  A    between atoms: C_7  and  C_9 
REMARK    4  A    between atoms: C_12  and  O_13 
REMARK    5  A    between atoms: C_18  and  O_19 
REMARK    6  A    between atoms: C_18  and  C_21 
ROOT
HETATM    1  O   UNK N   1      41.208  43.625  43.944  0.00  0.00    -0.293 OA
HETATM    2  C   UNK N   1      41.105  43.864  45.139  0.00  0.00     0.155 C 
HETATM    3  C   UNK N   1      42.258  43.541  46.034  0.00  0.00    -0.018 C 
HETATM    4  C   UNK N   1      42.368  43.920  47.333  0.00  0.00     0.016 C 
HETATM    5  C   UNK N   1      41.387  44.740  48.146  0.00  0.00     0.163 C 
HETATM    6  C   UNK N   1      40.802  45.995  47.467  0.00  0.00     0.062 C 
HETATM    7  C   UNK N   1      41.785  47.110  47.006  0.00  0.00     0.068 C 
HETATM    8  C   UNK N   1      40.828  47.959  46.133  0.00  0.00     0.039 C 
HETATM    9  C   UNK N   1      40.150  46.889  45.281  0.00  0.00     0.013 C 
HETATM   10  C   UNK N   1      39.785  45.779  46.293  0.00  0.00    -0.028 C 
HETATM   11  C   UNK N   1      39.786  44.374  45.643  0.00  0.00     0.093 C 
HETATM   12  C   UNK N   1      38.337  46.010  46.809  0.00  0.00     0.016 C 
HETATM   13  C   UNK N   1      43.392  42.745  45.424  0.00  0.00     0.052 C 
ENDROOT
BRANCH   5  14
HETATM   14  O   UNK N   1      40.357  43.949  48.630  0.00  0.00    -0.308 OA
BRANCH  14  15
HETATM   15  C   UNK N   1      39.640  44.251  49.754  0.00  0.00     0.294 C 
HETATM   16  O   UNK N   1      38.483  44.639  49.664  0.00  0.00    -0.259 OA
BRANCH  15  17
HETATM   17  C   UNK N   1      40.247  44.072  51.092  0.00  0.00     0.039 A 
HETATM   18  C   UNK N   1      39.710  43.132  51.994  0.00  0.00     0.020 A 
HETATM   19  C   UNK N   1      40.284  42.959  53.255  0.00  0.00     0.037 A 
HETATM   20  C   UNK N   1      41.399  43.721  53.633  0.00  0.00     0.065 A 
HETATM   21  C   UNK N   1      41.935  44.656  52.739  0.00  0.00     0.037 A 
HETATM   22  C   UNK N   1      41.365  44.830  51.475  0.00  0.00     0.020 A 
BRANCH  20  23
HETATM   23  O   UNK N   1      41.959  43.563  54.848  0.00  0.00    -0.361 OA
HETATM   24  H   UNK N   1      42.677  44.135  55.155  0.00  0.00     0.217 HD
ENDBRANCH  20  23
ENDBRANCH  15  17
ENDBRANCH  14  15
ENDBRANCH   5  14
BRANCH   7  25
HETATM   25  O   UNK N   1      42.782  46.517  46.198  0.00  0.00    -0.389 OA
HETATM   26  H   UNK N   1      43.675  46.806  46.521  0.00  0.00     0.210 HD
ENDBRANCH   7  25
BRANCH   7  27
HETATM   27  C   UNK N   1      42.489  47.899  48.178  0.00  0.00     0.012 C 
HETATM   28  C   UNK N   1      42.684  47.014  49.422  0.00  0.00     0.012 C 
HETATM   29  C   UNK N   1      43.858  48.519  47.815  0.00  0.00     0.012 C 
ENDBRANCH   7  27
TORSDOF 6
ENDMDL
MODEL 4
REMARK VINA RESULT:      -5.9     14.878     17.636
REMARK  6 active torsions:
REMARK  status: ('A' for Active; 'I' for Inactive)
REMARK    1  A    between atoms: C_5  and  O_6 
REMARK    2  A    between atoms: O_6  and  C_7 
REMARK    3  A    between atoms: C_7  and  C_9 
REMARK    4  A    between atoms: C_12  and  O_13 
REMARK    5  A    between atoms: C_18  and  O_19 
REMARK    6  A    between atoms: C_18  and  C_21 
ROOT
HETATM    1  O   UNK N   1      28.702  40.890  56.796  0.00  0.00    -0.293 OA
HETATM    2  C   UNK N   1      29.622  41.497  57.326  0.00  0.00     0.155 C 
HETATM    3  C   UNK N   1      30.605  42.209  56.454  0.00  0.00    -0.018 C 
HETATM    4  C   UNK N   1      31.556  43.073  56.894  0.00  0.00     0.016 C 
HETATM    5  C   UNK N   1      31.824  43.510  58.320  0.00  0.00     0.163 C 
HETATM    6  C   UNK N   1      30.595  43.883  59.173  0.00  0.00     0.062 C 
HETATM    7  C   UNK N   1      29.687  45.050  58.689  0.00  0.00     0.068 C 
HETATM    8  C   UNK N   1      28.473  44.844  59.629  0.00  0.00     0.039 C 
HETATM    9  C   UNK N   1      28.227  43.344  59.500  0.00  0.00     0.013 C 
HETATM   10  C   UNK N   1      29.638  42.721  59.615  0.00  0.00    -0.028 C 
HETATM   11  C   UNK N   1      29.759  41.400  58.818  0.00  0.00     0.093 C 
HETATM   12  C   UNK N   1      29.917  42.352  61.100  0.00  0.00     0.016 C 
HETATM   13  C   UNK N   1      30.507  41.951  54.965  0.00  0.00     0.052 C 
ENDROOT
BRANCH   5  14
HETATM   14  O   UNK N   1      32.592  42.572  58.992  0.00  0.00    -0.308 OA
BRANCH  14  15
HETATM   15  C   UNK N   1      33.918  42.749  59.275  0.00  0.00     0.294 C 
HETATM   16  O   UNK N   1      34.774  42.398  58.475  0.00  0.00    -0.259 OA
BRANCH  15  17
HETATM   17  C   UNK N   1      34.325  43.406  60.537  0.00  0.00     0.039 A 
HETATM   18  C   UNK N   1      33.438  43.455  61.630  0.00  0.00     0.020 A 
HETATM   19  C   UNK N   1      33.822  44.072  62.823  0.00  0.00     0.037 A 
HETATM   20  C   UNK N   1      35.095  44.648  62.940  0.00  0.00     0.065 A 
HETATM   21  C   UNK N   1      35.979  44.602  61.856  0.00  0.00     0.037 A 
HETATM   22  C   UNK N   1      35.599  43.983  60.661  0.00  0.00     0.020 A 
BRANCH  20  23
HETATM   23  O   UNK N   1      35.475  45.246  64.085  0.00  0.00    -0.361 OA
HETATM   24  H   UNK N   1      36.068  44.811  64.714  0.00  0.00     0.217 HD
ENDBRANCH  20  23
ENDBRANCH  15  17
ENDBRANCH  14  15
ENDBRANCH   5  14
BRANCH   7  25
HETATM   25  O   UNK N   1      29.312  44.795  57.349  0.00  0.00    -0.389 OA
HETATM   26  H   UNK N   1      30.114  44.520  56.835  0.00  0.00     0.210 HD
ENDBRANCH   7  25
BRANCH   7  27
HETATM   27  C   UNK N   1      30.349  46.481  58.763  0.00  0.00     0.012 C 
HETATM   28  C   UNK N   1      30.715  47.010  57.365  0.00  0.00     0.012 C 
HETATM   29  C   UNK N   1      29.497  47.557  59.472  0.00  0.00     0.012 C 
ENDBRANCH   7  27
TORSDOF 6
ENDMDL
MODEL 5
REMARK VINA RESULT:      -5.8      2.285      5.971
REMARK  6 active torsions:
REMARK  status: ('A' for Active; 'I' for Inactive)
REMARK    1  A    between atoms: C_5  and  O_6 
REMARK    2  A    between atoms: O_6  and  C_7 
REMARK    3  A    between atoms: C_7  and  C_9 
REMARK    4  A    between atoms: C_12  and  O_13 
REMARK    5  A    between atoms: C_18  and  O_19 
REMARK    6  A    between atoms: C_18  and  C_21 
ROOT
HETATM    1  O   UNK N   1      39.123  49.242  46.410  0.00  0.00    -0.293 OA
HETATM    2  C   UNK N   1      39.689  48.167  46.275  0.00  0.00     0.155 C 
HETATM    3  C   UNK N   1      41.171  48.158  46.081  0.00  0.00    -0.018 C 
HETATM    4  C   UNK N   1      41.955  47.050  46.109  0.00  0.00     0.016 C 
HETATM    5  C   UNK N   1      41.527  45.617  46.347  0.00  0.00     0.163 C 
HETATM    6  C   UNK N   1      40.539  45.371  47.505  0.00  0.00     0.062 C 
HETATM    7  C   UNK N   1      40.972  45.776  48.944  0.00  0.00     0.068 C 
HETATM    8  C   UNK N   1      39.610  45.659  49.670  0.00  0.00     0.039 C 
HETATM    9  C   UNK N   1      38.681  46.409  48.720  0.00  0.00     0.013 C 
HETATM   10  C   UNK N   1      39.065  45.874  47.320  0.00  0.00    -0.028 C 
HETATM   11  C   UNK N   1      38.840  46.930  46.211  0.00  0.00     0.093 C 
HETATM   12  C   UNK N   1      38.145  44.673  46.961  0.00  0.00     0.016 C 
HETATM   13  C   UNK N   1      41.836  49.500  45.857  0.00  0.00     0.052 C 
ENDROOT
BRANCH   5  14
HETATM   14  O   UNK N   1      41.036  45.044  45.184  0.00  0.00    -0.308 OA
BRANCH  14  15
HETATM   15  C   UNK N   1      41.102  43.705  44.919  0.00  0.00     0.294 C 
HETATM   16  O   UNK N   1      40.123  43.109  44.490  0.00  0.00    -0.259 OA
BRANCH  15  17
HETATM   17  C   UNK N   1      42.375  42.973  45.110  0.00  0.00     0.039 A 
HETATM   18  C   UNK N   1      43.451  43.179  44.224  0.00  0.00     0.020 A 
HETATM   19  C   UNK N   1      44.654  42.493  44.404  0.00  0.00     0.037 A 
HETATM   20  C   UNK N   1      44.797  41.592  45.469  0.00  0.00     0.065 A 
HETATM   21  C   UNK N   1      43.730  41.384  46.351  0.00  0.00     0.037 A 
HETATM   22  C   UNK N   1      42.526  42.072  46.175  0.00  0.00     0.020 A 
BRANCH  20  23
HETATM   23  O   UNK N   1      45.953  40.923  45.652  0.00  0.00    -0.361 OA
HETATM   24  H   UNK N   1      46.705  41.325  46.109  0.00  0.00     0.217 HD
ENDBRANCH  20  23
ENDBRANCH  15  17
ENDBRANCH  14  15
ENDBRANCH   5  14
BRANCH   7  25
HETATM   25  O   UNK N   1      41.394  47.126  48.917  0.00  0.00    -0.389 OA
HETATM   26  H   UNK N   1      41.013  47.599  49.701  0.00  0.00     0.210 HD
ENDBRANCH   7  25
BRANCH   7  27
HETATM   27  C   UNK N   1      42.131  44.899  49.559  0.00  0.00     0.012 C 
HETATM   28  C   UNK N   1      42.522  45.381  50.968  0.00  0.00     0.012 C 
HETATM   29  C   UNK N   1      41.829  43.386  49.640  0.00  0.00     0.012 C 
ENDBRANCH   7  27
TORSDOF 6
ENDMDL
MODEL 6
REMARK VINA RESULT:      -5.8     14.581     16.592
REMARK  6 active torsions:
REMARK  status: ('A' for Active; 'I' for Inactive)
REMARK    1  A    between atoms: C_5  and  O_6 
REMARK    2  A    between atoms: O_6  and  C_7 
REMARK    3  A    between atoms: C_7  and  C_9 
REMARK    4  A    between atoms: C_12  and  O_13 
REMARK    5  A    between atoms: C_18  and  O_19 
REMARK    6  A    between atoms: C_18  and  C_21 
ROOT
HETATM    1  O   UNK N   1      28.303  45.618  59.624  0.00  0.00    -0.293 OA
HETATM    2  C   UNK N   1      29.016  44.959  58.881  0.00  0.00     0.155 C 
HETATM    3  C   UNK N   1      30.213  45.615  58.272  0.00  0.00    -0.018 C 
HETATM    4  C   UNK N   1      31.193  44.970  57.589  0.00  0.00     0.016 C 
HETATM    5  C   UNK N   1      31.304  43.485  57.306  0.00  0.00     0.163 C 
HETATM    6  C   UNK N   1      31.017  42.532  58.483  0.00  0.00     0.062 C 
HETATM    7  C   UNK N   1      31.905  42.641  59.756  0.00  0.00     0.068 C 
HETATM    8  C   UNK N   1      31.075  41.770  60.731  0.00  0.00     0.039 C 
HETATM    9  C   UNK N   1      29.666  42.315  60.516  0.00  0.00     0.013 C 
HETATM   10  C   UNK N   1      29.533  42.417  58.979  0.00  0.00    -0.028 C 
HETATM   11  C   UNK N   1      28.582  43.560  58.550  0.00  0.00     0.093 C 
HETATM   12  C   UNK N   1      28.900  41.106  58.431  0.00  0.00     0.016 C 
HETATM   13  C   UNK N   1      30.337  47.112  58.456  0.00  0.00     0.052 C 
ENDROOT
BRANCH   5  14
HETATM   14  O   UNK N   1      30.529  43.127  56.214  0.00  0.00    -0.308 OA
BRANCH  14  15
HETATM   15  C   UNK N   1      30.918  42.202  55.286  0.00  0.00     0.294 C 
HETATM   16  O   UNK N   1      32.101  42.070  55.003  0.00  0.00    -0.259 OA
BRANCH  15  17
HETATM   17  C   UNK N   1      29.912  41.324  54.647  0.00  0.00     0.039 A 
HETATM   18  C   UNK N   1      29.780  39.982  55.055  0.00  0.00     0.020 A 
HETATM   19  C   UNK N   1      28.830  39.153  54.455  0.00  0.00     0.037 A 
HETATM   20  C   UNK N   1      28.000  39.652  53.441  0.00  0.00     0.065 A 
HETATM   21  C   UNK N   1      28.128  40.985  53.033  0.00  0.00     0.037 A 
HETATM   22  C   UNK N   1      29.077  41.818  53.633  0.00  0.00     0.020 A 
BRANCH  20  23
HETATM   23  O   UNK N   1      27.081  38.861  52.855  0.00  0.00    -0.361 OA
HETATM   24  H   UNK N   1      27.238  37.916  52.716  0.00  0.00     0.217 HD
ENDBRANCH  20  23
ENDBRANCH  15  17
ENDBRANCH  14  15
ENDBRANCH   5  14
BRANCH   7  25
HETATM   25  O   UNK N   1      31.902  43.988  60.186  0.00  0.00    -0.389 OA
HETATM   26  H   UNK N   1      32.534  44.508  59.625  0.00  0.00     0.210 HD
ENDBRANCH   7  25
BRANCH   7  27
HETATM   27  C   UNK N   1      33.401  42.178  59.562  0.00  0.00     0.012 C 
HETATM   28  C   UNK N   1      34.376  43.050  60.374  0.00  0.00     0.012 C 
HETATM   29  C   UNK N   1      33.677  40.699  59.917  0.00  0.00     0.012 C 
ENDBRANCH   7  27
TORSDOF 6
ENDMDL
MODEL 7
REMARK VINA RESULT:      -5.8     14.166     16.872
REMARK  6 active torsions:
REMARK  status: ('A' for Active; 'I' for Inactive)
REMARK    1  A    between atoms: C_5  and  O_6 
REMARK    2  A    between atoms: O_6  and  C_7 
REMARK    3  A    between atoms: C_7  and  C_9 
REMARK    4  A    between atoms: C_12  and  O_13 
REMARK    5  A    between atoms: C_18  and  O_19 
REMARK    6  A    between atoms: C_18  and  C_21 
ROOT
HETATM    1  O   UNK N   1      27.815  38.143  56.560  0.00  0.00    -0.293 OA
HETATM    2  C   UNK N   1      28.462  39.163  56.371  0.00  0.00     0.155 C 
HETATM    3  C   UNK N   1      29.604  39.118  55.409  0.00  0.00    -0.018 C 
HETATM    4  C   UNK N   1      30.286  40.201  54.955  0.00  0.00     0.016 C 
HETATM    5  C   UNK N   1      30.049  41.657  55.298  0.00  0.00     0.163 C 
HETATM    6  C   UNK N   1      28.585  42.141  55.290  0.00  0.00     0.062 C 
HETATM    7  C   UNK N   1      27.778  42.031  53.964  0.00  0.00     0.068 C 
HETATM    8  C   UNK N   1      26.351  42.306  54.501  0.00  0.00     0.039 C 
HETATM    9  C   UNK N   1      26.292  41.389  55.719  0.00  0.00     0.013 C 
HETATM   10  C   UNK N   1      27.643  41.626  56.434  0.00  0.00    -0.028 C 
HETATM   11  C   UNK N   1      28.126  40.370  57.198  0.00  0.00     0.093 C 
HETATM   12  C   UNK N   1      27.467  42.739  57.506  0.00  0.00     0.016 C 
HETATM   13  C   UNK N   1      30.007  37.752  54.894  0.00  0.00     0.052 C 
ENDROOT
BRANCH   5  14
HETATM   14  O   UNK N   1      30.643  41.988  56.506  0.00  0.00    -0.308 OA
BRANCH  14  15
HETATM   15  C   UNK N   1      31.407  43.107  56.687  0.00  0.00     0.294 C 
HETATM   16  O   UNK N   1      32.377  43.317  55.971  0.00  0.00    -0.259 OA
BRANCH  15  17
HETATM   17  C   UNK N   1      31.039  44.096  57.725  0.00  0.00     0.039 A 
HETATM   18  C   UNK N   1      30.754  43.674  59.038  0.00  0.00     0.020 A 
HETATM   19  C   UNK N   1      30.411  44.605  60.020  0.00  0.00     0.037 A 
HETATM   20  C   UNK N   1      30.347  45.970  59.703  0.00  0.00     0.065 A 
HETATM   21  C   UNK N   1      30.629  46.394  58.400  0.00  0.00     0.037 A 
HETATM   22  C   UNK N   1      30.976  45.464  57.415  0.00  0.00     0.020 A 
BRANCH  20  23
HETATM   23  O   UNK N   1      30.015  46.877  60.643  0.00  0.00    -0.361 OA
HETATM   24  H   UNK N   1      29.476  46.640  61.411  0.00  0.00     0.217 HD
ENDBRANCH  20  23
ENDBRANCH  15  17
ENDBRANCH  14  15
ENDBRANCH   5  14
BRANCH   7  25
HETATM   25  O   UNK N   1      27.872  40.700  53.496  0.00  0.00    -0.389 OA
HETATM   26  H   UNK N   1      28.227  40.706  52.571  0.00  0.00     0.210 HD
ENDBRANCH   7  25
BRANCH   7  27
HETATM   27  C   UNK N   1      28.254  43.003  52.815  0.00  0.00     0.012 C 
HETATM   28  C   UNK N   1      29.100  42.266  51.762  0.00  0.00     0.012 C 
HETATM   29  C   UNK N   1      27.117  43.746  52.079  0.00  0.00     0.012 C 
ENDBRANCH   7  27
TORSDOF 6
ENDMDL
MODEL 8
REMARK VINA RESULT:      -5.5     15.183     17.719
REMARK  6 active torsions:
REMARK  status: ('A' for Active; 'I' for Inactive)
REMARK    1  A    between atoms: C_5  and  O_6 
REMARK    2  A    between atoms: O_6  and  C_7 
REMARK    3  A    between atoms: C_7  and  C_9 
REMARK    4  A    between atoms: C_12  and  O_13 
REMARK    5  A    between atoms: C_18  and  O_19 
REMARK    6  A    between atoms: C_18  and  C_21 
ROOT
HETATM    1  O   UNK N   1      29.961  40.245  59.029  0.00  0.00    -0.293 OA
HETATM    2  C   UNK N   1      29.988  41.414  59.387  0.00  0.00     0.155 C 
HETATM    3  C   UNK N   1      29.315  41.784  60.669  0.00  0.00    -0.018 C 
HETATM    4  C   UNK N   1      29.422  42.988  61.288  0.00  0.00     0.016 C 
HETATM    5  C   UNK N   1      30.229  44.191  60.843  0.00  0.00     0.163 C 
HETATM    6  C   UNK N   1      31.668  43.919  60.362  0.00  0.00     0.062 C 
HETATM    7  C   UNK N   1      32.669  43.263  61.357  0.00  0.00     0.068 C 
HETATM    8  C   UNK N   1      33.813  42.901  60.378  0.00  0.00     0.039 C 
HETATM    9  C   UNK N   1      33.050  42.239  59.235  0.00  0.00     0.013 C 
HETATM   10  C   UNK N   1      31.848  43.180  58.990  0.00  0.00    -0.028 C 
HETATM   11  C   UNK N   1      30.610  42.418  58.461  0.00  0.00     0.093 C 
HETATM   12  C   UNK N   1      32.220  44.211  57.887  0.00  0.00     0.016 C 
HETATM   13  C   UNK N   1      28.467  40.715  61.327  0.00  0.00     0.052 C 
ENDROOT
BRANCH   5  14
HETATM   14  O   UNK N   1      29.546  44.923  59.885  0.00  0.00    -0.308 OA
BRANCH  14  15
HETATM   15  C   UNK N   1      29.005  46.155  60.124  0.00  0.00     0.294 C 
HETATM   16  O   UNK N   1      28.223  46.318  61.050  0.00  0.00    -0.259 OA
BRANCH  15  17
HETATM   17  C   UNK N   1      29.395  47.311  59.286  0.00  0.00     0.039 A 
HETATM   18  C   UNK N   1      29.204  48.625  59.758  0.00  0.00     0.020 A 
HETATM   19  C   UNK N   1      29.575  49.717  58.971  0.00  0.00     0.037 A 
HETATM   20  C   UNK N   1      30.140  49.513  57.704  0.00  0.00     0.065 A 
HETATM   21  C   UNK N   1      30.332  48.209  57.232  0.00  0.00     0.037 A 
HETATM   22  C   UNK N   1      29.964  47.114  58.018  0.00  0.00     0.020 A 
BRANCH  20  23
HETATM   23  O   UNK N   1      30.500  50.560  56.936  0.00  0.00    -0.361 OA
HETATM   24  H   UNK N   1      30.615  50.472  55.979  0.00  0.00     0.217 HD
ENDBRANCH  20  23
ENDBRANCH  15  17
ENDBRANCH  14  15
ENDBRANCH   5  14
BRANCH   7  25
HETATM   25  O   UNK N   1      32.077  42.085  61.869  0.00  0.00    -0.389 OA
HETATM   26  H   UNK N   1      32.520  41.297  61.461  0.00  0.00     0.210 HD
ENDBRANCH   7  25
BRANCH   7  27
HETATM   27  C   UNK N   1      33.096  44.179  62.569  0.00  0.00     0.012 C 
HETATM   28  C   UNK N   1      32.567  43.634  63.908  0.00  0.00     0.012 C 
HETATM   29  C   UNK N   1      34.619  44.401  62.712  0.00  0.00     0.012 C 
ENDBRANCH   7  27
TORSDOF 6
ENDMDL
MODEL 9
REMARK VINA RESULT:      -5.4     14.704     17.329
REMARK  6 active torsions:
REMARK  status: ('A' for Active; 'I' for Inactive)
REMARK    1  A    between atoms: C_5  and  O_6 
REMARK    2  A    between atoms: O_6  and  C_7 
REMARK    3  A    between atoms: C_7  and  C_9 
REMARK    4  A    between atoms: C_12  and  O_13 
REMARK    5  A    between atoms: C_18  and  O_19 
REMARK    6  A    between atoms: C_18  and  C_21 
ROOT
HETATM    1  O   UNK N   1      26.607  41.925  53.176  0.00  0.00    -0.293 OA
HETATM    2  C   UNK N   1      27.250  42.226  54.172  0.00  0.00     0.155 C 
HETATM    3  C   UNK N   1      26.510  42.578  55.421  0.00  0.00    -0.018 C 
HETATM    4  C   UNK N   1      27.077  42.744  56.644  0.00  0.00     0.016 C 
HETATM    5  C   UNK N   1      28.539  42.605  57.016  0.00  0.00     0.163 C 
HETATM    6  C   UNK N   1      29.283  41.377  56.453  0.00  0.00     0.062 C 
HETATM    7  C   UNK N   1      28.761  39.960  56.831  0.00  0.00     0.068 C 
HETATM    8  C   UNK N   1      29.568  39.105  55.822  0.00  0.00     0.039 C 
HETATM    9  C   UNK N   1      29.353  39.872  54.520  0.00  0.00     0.013 C 
HETATM   10  C   UNK N   1      29.579  41.350  54.912  0.00  0.00    -0.028 C 
HETATM   11  C   UNK N   1      28.743  42.319  54.042  0.00  0.00     0.093 C 
HETATM   12  C   UNK N   1      31.067  41.726  54.662  0.00  0.00     0.016 C 
HETATM   13  C   UNK N   1      25.009  42.739  55.302  0.00  0.00     0.052 C 
ENDROOT
BRANCH   5  14
HETATM   14  O   UNK N   1      29.243  43.758  56.709  0.00  0.00    -0.308 OA
BRANCH  14  15
HETATM   15  C   UNK N   1      29.903  44.507  57.642  0.00  0.00     0.294 C 
HETATM   16  O   UNK N   1      29.525  45.640  57.907  0.00  0.00    -0.259 OA
BRANCH  15  17
HETATM   17  C   UNK N   1      31.058  43.935  58.371  0.00  0.00     0.039 A 
HETATM   18  C   UNK N   1      31.055  43.886  59.779  0.00  0.00     0.020 A 
HETATM   19  C   UNK N   1      32.142  43.344  60.468  0.00  0.00     0.037 A 
HETATM   20  C   UNK N   1      33.244  42.844  59.761  0.00  0.00     0.065 A 
HETATM   21  C   UNK N   1      33.251  42.890  58.362  0.00  0.00     0.037 A 
HETATM   22  C   UNK N   1      32.164  43.430  57.669  0.00  0.00     0.020 A 
BRANCH  20  23
HETATM   23  O   UNK N   1      34.299  42.319  60.416  0.00  0.00    -0.361 OA
HETATM   24  H   UNK N   1      34.269  41.430  60.798  0.00  0.00     0.217 HD
ENDBRANCH  20  23
ENDBRANCH  15  17
ENDBRANCH  14  15
ENDBRANCH   5  14
BRANCH   7  25
HETATM   25  O   UNK N   1      27.382  39.898  56.525  0.00  0.00    -0.389 OA
HETATM   26  H   UNK N   1      27.219  39.132  55.917  0.00  0.00     0.210 HD
ENDBRANCH   7  25
BRANCH   7  27
HETATM   27  C   UNK N   1      28.960  39.563  58.345  0.00  0.00     0.012 C 
HETATM   28  C   UNK N   1      29.054  38.037  58.525  0.00  0.00     0.012 C 
HETATM   29  C   UNK N   1      30.191  40.199  59.029  0.00  0.00     0.012 C 
ENDBRANCH   7  27
TORSDOF 6
ENDMDL
