MODEL 1
REMARK VINA RESULT:      -7.2      0.000      0.000
REMARK  6 active torsions:
REMARK  status: ('A' for Active; 'I' for Inactive)
REMARK    1  A    between atoms: C_5  and  O_6 
REMARK    2  A    between atoms: O_6  and  C_7 
REMARK    3  A    between atoms: C_7  and  C_9 
REMARK    4  A    between atoms: C_12  and  O_13 
REMARK    5  A    between atoms: C_18  and  O_19 
REMARK    6  A    between atoms: C_18  and  C_21 
ROOT
HETATM    1  O   UNK N   1      43.014  47.616  49.460  0.00  0.00    -0.293 OA
HETATM    2  C   UNK N   1      42.241  47.382  48.542  0.00  0.00     0.155 C 
HETATM    3  C   UNK N   1      42.663  47.725  47.149  0.00  0.00    -0.018 C 
HETATM    4  C   UNK N   1      42.005  47.354  46.022  0.00  0.00     0.016 C 
HETATM    5  C   UNK N   1      40.739  46.529  45.915  0.00  0.00     0.163 C 
HETATM    6  C   UNK N   1      40.656  45.262  46.790  0.00  0.00     0.062 C 
HETATM    7  C   UNK N   1      41.722  44.149  46.575  0.00  0.00     0.068 C 
HETATM    8  C   UNK N   1      41.462  43.287  47.834  0.00  0.00     0.039 C 
HETATM    9  C   UNK N   1      41.409  44.344  48.933  0.00  0.00     0.013 C 
HETATM   10  C   UNK N   1      40.513  45.456  48.339  0.00  0.00    -0.028 C 
HETATM   11  C   UNK N   1      40.879  46.857  48.888  0.00  0.00     0.093 C 
HETATM   12  C   UNK N   1      39.037  45.204  48.763  0.00  0.00     0.016 C 
HETATM   13  C   UNK N   1      43.936  48.532  47.001  0.00  0.00     0.052 C 
ENDROOT
BRANCH   5  14
HETATM   14  O   UNK N   1      39.614  47.312  46.119  0.00  0.00    -0.308 OA
BRANCH  14  15
HETATM   15  C   UNK N   1      38.771  47.686  45.111  0.00  0.00     0.294 C 
HETATM   16  O   UNK N   1      37.763  47.035  44.873  0.00  0.00    -0.259 OA
BRANCH  15  17
HETATM   17  C   UNK N   1      39.051  48.905  44.321  0.00  0.00     0.039 A 
HETATM   18  C   UNK N   1      39.879  49.914  44.836  0.00  0.00     0.020 A 
HETATM   19  C   UNK N   1      40.138  51.064  44.085  0.00  0.00     0.038 A 
HETATM   20  C   UNK N   1      39.575  51.227  42.812  0.00  0.00     0.068 A 
HETATM   21  C   UNK N   1      38.741  50.216  42.296  0.00  0.00     0.038 A 
HETATM   22  C   UNK N   1      38.484  49.066  43.044  0.00  0.00     0.020 A 
BRANCH  20  23
HETATM   23  O   UNK N   1      39.854  52.361  42.117  0.00  0.00    -0.356 OA
HETATM   24  C   UNK N   1      40.166  53.580  42.684  0.00  0.00     0.210 C 
ENDBRANCH  20  23
ENDBRANCH  15  17
ENDBRANCH  14  15
ENDBRANCH   5  14
BRANCH   7  25
HETATM   25  O   UNK N   1      43.003  44.741  46.649  0.00  0.00    -0.389 OA
HETATM   26  H   UNK N   1      43.681  44.088  46.338  0.00  0.00     0.210 HD
ENDBRANCH   7  25
BRANCH   7  27
HETATM   27  C   UNK N   1      41.601  43.375  45.204  0.00  0.00     0.012 C 
HETATM   28  C   UNK N   1      41.972  44.272  44.010  0.00  0.00     0.012 C 
HETATM   29  C   UNK N   1      42.442  42.082  45.107  0.00  0.00     0.012 C 
ENDBRANCH   7  27
TORSDOF 6
ENDMDL
MODEL 2
REMARK VINA RESULT:      -6.9      2.661      7.539
REMARK  6 active torsions:
REMARK  status: ('A' for Active; 'I' for Inactive)
REMARK    1  A    between atoms: C_5  and  O_6 
REMARK    2  A    between atoms: O_6  and  C_7 
REMARK    3  A    between atoms: C_7  and  C_9 
REMARK    4  A    between atoms: C_12  and  O_13 
REMARK    5  A    between atoms: C_18  and  O_19 
REMARK    6  A    between atoms: C_18  and  C_21 
ROOT
HETATM    1  O   UNK N   1      39.657  43.295  44.776  0.00  0.00    -0.293 OA
HETATM    2  C   UNK N   1      40.281  43.998  45.558  0.00  0.00     0.155 C 
HETATM    3  C   UNK N   1      41.688  44.371  45.216  0.00  0.00    -0.018 C 
HETATM    4  C   UNK N   1      42.433  45.291  45.880  0.00  0.00     0.016 C 
HETATM    5  C   UNK N   1      42.026  46.130  47.074  0.00  0.00     0.163 C 
HETATM    6  C   UNK N   1      40.636  46.795  47.018  0.00  0.00     0.062 C 
HETATM    7  C   UNK N   1      40.350  47.805  45.869  0.00  0.00     0.068 C 
HETATM    8  C   UNK N   1      38.814  47.938  46.011  0.00  0.00     0.039 C 
HETATM    9  C   UNK N   1      38.381  46.479  46.115  0.00  0.00     0.013 C 
HETATM   10  C   UNK N   1      39.379  45.863  47.123  0.00  0.00    -0.028 C 
HETATM   11  C   UNK N   1      39.622  44.357  46.857  0.00  0.00     0.093 C 
HETATM   12  C   UNK N   1      38.779  45.954  48.556  0.00  0.00     0.016 C 
HETATM   13  C   UNK N   1      42.307  43.676  44.023  0.00  0.00     0.052 C 
ENDROOT
BRANCH   5  14
HETATM   14  O   UNK N   1      42.154  45.414  48.254  0.00  0.00    -0.308 OA
BRANCH  14  15
HETATM   15  C   UNK N   1      42.204  46.005  49.485  0.00  0.00     0.294 C 
HETATM   16  O   UNK N   1      42.648  47.138  49.610  0.00  0.00    -0.259 OA
BRANCH  15  17
HETATM   17  C   UNK N   1      41.685  45.292  50.673  0.00  0.00     0.039 A 
HETATM   18  C   UNK N   1      40.755  44.252  50.532  0.00  0.00     0.020 A 
HETATM   19  C   UNK N   1      40.269  43.584  51.660  0.00  0.00     0.038 A 
HETATM   20  C   UNK N   1      40.699  43.944  52.943  0.00  0.00     0.068 A 
HETATM   21  C   UNK N   1      41.631  44.991  53.086  0.00  0.00     0.038 A 
HETATM   22  C   UNK N   1      42.119  45.657  51.961  0.00  0.00     0.020 A 
BRANCH  20  23
HETATM   23  O   UNK N   1      40.200  43.268  54.011  0.00  0.00    -0.356 OA
HETATM   24  C   UNK N   1      39.139  42.386  53.964  0.00  0.00     0.210 C 
ENDBRANCH  20  23
ENDBRANCH  15  17
ENDBRANCH  14  15
ENDBRANCH   5  14
BRANCH   7  25
HETATM   25  O   UNK N   1      40.672  47.183  44.642  0.00  0.00    -0.389 OA
HETATM   26  H   UNK N   1      40.958  47.876  43.992  0.00  0.00     0.210 HD
ENDBRANCH   7  25
BRANCH   7  27
HETATM   27  C   UNK N   1      41.146  49.164  45.972  0.00  0.00     0.012 C 
HETATM   28  C   UNK N   1      42.667  48.939  45.903  0.00  0.00     0.012 C 
HETATM   29  C   UNK N   1      40.773  50.223  44.909  0.00  0.00     0.012 C 
ENDBRANCH   7  27
TORSDOF 6
ENDMDL
MODEL 3
REMARK VINA RESULT:      -6.0     15.137     17.915
REMARK  6 active torsions:
REMARK  status: ('A' for Active; 'I' for Inactive)
REMARK    1  A    between atoms: C_5  and  O_6 
REMARK    2  A    between atoms: O_6  and  C_7 
REMARK    3  A    between atoms: C_7  and  C_9 
REMARK    4  A    between atoms: C_12  and  O_13 
REMARK    5  A    between atoms: C_18  and  O_19 
REMARK    6  A    between atoms: C_18  and  C_21 
ROOT
HETATM    1  O   UNK N   1      28.707  40.879  56.808  0.00  0.00    -0.293 OA
HETATM    2  C   UNK N   1      29.623  41.493  57.336  0.00  0.00     0.155 C 
HETATM    3  C   UNK N   1      30.603  42.205  56.460  0.00  0.00    -0.018 C 
HETATM    4  C   UNK N   1      31.548  43.076  56.897  0.00  0.00     0.016 C 
HETATM    5  C   UNK N   1      31.815  43.521  58.320  0.00  0.00     0.163 C 
HETATM    6  C   UNK N   1      30.589  43.893  59.176  0.00  0.00     0.062 C 
HETATM    7  C   UNK N   1      29.683  45.063  58.694  0.00  0.00     0.068 C 
HETATM    8  C   UNK N   1      28.464  44.854  59.625  0.00  0.00     0.039 C 
HETATM    9  C   UNK N   1      28.219  43.354  59.491  0.00  0.00     0.013 C 
HETATM   10  C   UNK N   1      29.630  42.732  59.617  0.00  0.00    -0.028 C 
HETATM   11  C   UNK N   1      29.756  41.406  58.828  0.00  0.00     0.093 C 
HETATM   12  C   UNK N   1      29.898  42.371  61.107  0.00  0.00     0.016 C 
HETATM   13  C   UNK N   1      30.509  41.938  54.973  0.00  0.00     0.052 C 
ENDROOT
BRANCH   5  14
HETATM   14  O   UNK N   1      32.592  42.592  58.995  0.00  0.00    -0.308 OA
BRANCH  14  15
HETATM   15  C   UNK N   1      33.915  42.788  59.276  0.00  0.00     0.294 C 
HETATM   16  O   UNK N   1      34.774  42.464  58.468  0.00  0.00    -0.259 OA
BRANCH  15  17
HETATM   17  C   UNK N   1      34.318  43.430  60.546  0.00  0.00     0.039 A 
HETATM   18  C   UNK N   1      35.592  44.000  60.686  0.00  0.00     0.020 A 
HETATM   19  C   UNK N   1      35.966  44.603  61.890  0.00  0.00     0.038 A 
HETATM   20  C   UNK N   1      35.079  44.647  62.973  0.00  0.00     0.068 A 
HETATM   21  C   UNK N   1      33.799  44.072  62.835  0.00  0.00     0.038 A 
HETATM   22  C   UNK N   1      33.424  43.472  61.632  0.00  0.00     0.020 A 
BRANCH  20  23
HETATM   23  O   UNK N   1      35.484  45.244  64.124  0.00  0.00    -0.356 OA
HETATM   24  C   UNK N   1      36.214  46.413  64.195  0.00  0.00     0.210 C 
ENDBRANCH  20  23
ENDBRANCH  15  17
ENDBRANCH  14  15
ENDBRANCH   5  14
BRANCH   7  25
HETATM   25  O   UNK N   1      29.316  44.816  57.352  0.00  0.00    -0.389 OA
HETATM   26  H   UNK N   1      29.831  45.421  56.758  0.00  0.00     0.210 HD
ENDBRANCH   7  25
BRANCH   7  27
HETATM   27  C   UNK N   1      30.348  46.492  58.783  0.00  0.00     0.012 C 
HETATM   28  C   UNK N   1      30.729  47.029  57.391  0.00  0.00     0.012 C 
HETATM   29  C   UNK N   1      29.493  47.568  59.491  0.00  0.00     0.012 C 
ENDBRANCH   7  27
TORSDOF 6
ENDMDL
MODEL 4
REMARK VINA RESULT:      -5.8     14.896     17.069
REMARK  6 active torsions:
REMARK  status: ('A' for Active; 'I' for Inactive)
REMARK    1  A    between atoms: C_5  and  O_6 
REMARK    2  A    between atoms: O_6  and  C_7 
REMARK    3  A    between atoms: C_7  and  C_9 
REMARK    4  A    between atoms: C_12  and  O_13 
REMARK    5  A    between atoms: C_18  and  O_19 
REMARK    6  A    between atoms: C_18  and  C_21 
ROOT
HETATM    1  O   UNK N   1      28.257  45.637  59.587  0.00  0.00    -0.293 OA
HETATM    2  C   UNK N   1      28.976  44.975  58.853  0.00  0.00     0.155 C 
HETATM    3  C   UNK N   1      30.189  45.623  58.268  0.00  0.00    -0.018 C 
HETATM    4  C   UNK N   1      31.175  44.972  57.600  0.00  0.00     0.016 C 
HETATM    5  C   UNK N   1      31.277  43.489  57.309  0.00  0.00     0.163 C 
HETATM    6  C   UNK N   1      30.961  42.527  58.471  0.00  0.00     0.062 C 
HETATM    7  C   UNK N   1      31.838  42.610  59.754  0.00  0.00     0.068 C 
HETATM    8  C   UNK N   1      30.981  41.752  60.716  0.00  0.00     0.039 C 
HETATM    9  C   UNK N   1      29.585  42.323  60.488  0.00  0.00     0.013 C 
HETATM   10  C   UNK N   1      29.471  42.428  58.950  0.00  0.00    -0.028 C 
HETATM   11  C   UNK N   1      28.536  43.582  58.511  0.00  0.00     0.093 C 
HETATM   12  C   UNK N   1      28.830  41.123  58.395  0.00  0.00     0.016 C 
HETATM   13  C   UNK N   1      30.324  47.119  58.461  0.00  0.00     0.052 C 
ENDROOT
BRANCH   5  14
HETATM   14  O   UNK N   1      30.521  43.145  56.199  0.00  0.00    -0.308 OA
BRANCH  14  15
HETATM   15  C   UNK N   1      30.918  42.208  55.287  0.00  0.00     0.294 C 
HETATM   16  O   UNK N   1      32.101  42.081  55.005  0.00  0.00    -0.259 OA
BRANCH  15  17
HETATM   17  C   UNK N   1      29.920  41.313  54.660  0.00  0.00     0.039 A 
HETATM   18  C   UNK N   1      29.049  41.796  53.672  0.00  0.00     0.020 A 
HETATM   19  C   UNK N   1      28.108  40.945  53.085  0.00  0.00     0.038 A 
HETATM   20  C   UNK N   1      28.020  39.602  53.475  0.00  0.00     0.068 A 
HETATM   21  C   UNK N   1      28.893  39.117  54.469  0.00  0.00     0.038 A 
HETATM   22  C   UNK N   1      29.834  39.965  55.053  0.00  0.00     0.020 A 
BRANCH  20  23
HETATM   23  O   UNK N   1      27.091  38.811  52.877  0.00  0.00    -0.356 OA
HETATM   24  C   UNK N   1      26.433  37.763  53.488  0.00  0.00     0.210 C 
ENDBRANCH  20  23
ENDBRANCH  15  17
ENDBRANCH  14  15
ENDBRANCH   5  14
BRANCH   7  25
HETATM   25  O   UNK N   1      31.858  43.954  60.191  0.00  0.00    -0.389 OA
HETATM   26  H   UNK N   1      31.666  44.549  59.421  0.00  0.00     0.210 HD
ENDBRANCH   7  25
BRANCH   7  27
HETATM   27  C   UNK N   1      33.326  42.116  59.570  0.00  0.00     0.012 C 
HETATM   28  C   UNK N   1      34.316  42.981  60.370  0.00  0.00     0.012 C 
HETATM   29  C   UNK N   1      33.575  40.637  59.947  0.00  0.00     0.012 C 
ENDBRANCH   7  27
TORSDOF 6
ENDMDL
MODEL 5
REMARK VINA RESULT:      -5.8     14.362     17.132
REMARK  6 active torsions:
REMARK  status: ('A' for Active; 'I' for Inactive)
REMARK    1  A    between atoms: C_5  and  O_6 
REMARK    2  A    between atoms: O_6  and  C_7 
REMARK    3  A    between atoms: C_7  and  C_9 
REMARK    4  A    between atoms: C_12  and  O_13 
REMARK    5  A    between atoms: C_18  and  O_19 
REMARK    6  A    between atoms: C_18  and  C_21 
ROOT
HETATM    1  O   UNK N   1      27.781  38.139  56.584  0.00  0.00    -0.293 OA
HETATM    2  C   UNK N   1      28.462  39.132  56.371  0.00  0.00     0.155 C 
HETATM    3  C   UNK N   1      29.594  39.028  55.401  0.00  0.00    -0.018 C 
HETATM    4  C   UNK N   1      30.309  40.077  54.922  0.00  0.00     0.016 C 
HETATM    5  C   UNK N   1      30.128  41.548  55.240  0.00  0.00     0.163 C 
HETATM    6  C   UNK N   1      28.685  42.089  55.236  0.00  0.00     0.062 C 
HETATM    7  C   UNK N   1      27.868  41.997  53.914  0.00  0.00     0.068 C 
HETATM    8  C   UNK N   1      26.454  42.322  54.454  0.00  0.00     0.039 C 
HETATM    9  C   UNK N   1      26.370  41.418  55.680  0.00  0.00     0.013 C 
HETATM   10  C   UNK N   1      27.729  41.623  56.390  0.00  0.00    -0.028 C 
HETATM   11  C   UNK N   1      28.173  40.365  57.176  0.00  0.00     0.093 C 
HETATM   12  C   UNK N   1      27.590  42.760  57.443  0.00  0.00     0.016 C 
HETATM   13  C   UNK N   1      29.945  37.640  54.910  0.00  0.00     0.052 C 
ENDROOT
BRANCH   5  14
HETATM   14  O   UNK N   1      30.748  41.880  56.434  0.00  0.00    -0.308 OA
BRANCH  14  15
HETATM   15  C   UNK N   1      31.496  43.012  56.598  0.00  0.00     0.294 C 
HETATM   16  O   UNK N   1      32.439  43.244  55.854  0.00  0.00    -0.259 OA
BRANCH  15  17
HETATM   17  C   UNK N   1      31.146  43.987  57.654  0.00  0.00     0.039 A 
HETATM   18  C   UNK N   1      30.896  43.559  58.966  0.00  0.00     0.020 A 
HETATM   19  C   UNK N   1      30.564  44.485  59.959  0.00  0.00     0.038 A 
HETATM   20  C   UNK N   1      30.476  45.851  59.659  0.00  0.00     0.068 A 
HETATM   21  C   UNK N   1      30.724  46.282  58.340  0.00  0.00     0.038 A 
HETATM   22  C   UNK N   1      31.058  45.357  57.350  0.00  0.00     0.020 A 
BRANCH  20  23
HETATM   23  O   UNK N   1      30.152  46.716  60.655  0.00  0.00    -0.356 OA
HETATM   24  C   UNK N   1      30.077  46.391  61.994  0.00  0.00     0.210 C 
ENDBRANCH  20  23
ENDBRANCH  15  17
ENDBRANCH  14  15
ENDBRANCH   5  14
BRANCH   7  25
HETATM   25  O   UNK N   1      27.916  40.661  53.455  0.00  0.00    -0.389 OA
HETATM   26  H   UNK N   1      28.276  40.649  52.531  0.00  0.00     0.210 HD
ENDBRANCH   7  25
BRANCH   7  27
HETATM   27  C   UNK N   1      28.372  42.948  52.760  0.00  0.00     0.012 C 
HETATM   28  C   UNK N   1      29.224  42.187  51.727  0.00  0.00     0.012 C 
HETATM   29  C   UNK N   1      27.257  43.698  51.996  0.00  0.00     0.012 C 
ENDBRANCH   7  27
TORSDOF 6
ENDMDL
MODEL 6
REMARK VINA RESULT:      -5.6     14.802     18.407
REMARK  6 active torsions:
REMARK  status: ('A' for Active; 'I' for Inactive)
REMARK    1  A    between atoms: C_5  and  O_6 
REMARK    2  A    between atoms: O_6  and  C_7 
REMARK    3  A    between atoms: C_7  and  C_9 
REMARK    4  A    between atoms: C_12  and  O_13 
REMARK    5  A    between atoms: C_18  and  O_19 
REMARK    6  A    between atoms: C_18  and  C_21 
ROOT
HETATM    1  O   UNK N   1      28.434  50.890  55.738  0.00  0.00    -0.293 OA
HETATM    2  C   UNK N   1      28.591  49.898  56.436  0.00  0.00     0.155 C 
HETATM    3  C   UNK N   1      29.982  49.400  56.665  0.00  0.00    -0.018 C 
HETATM    4  C   UNK N   1      30.328  48.440  57.560  0.00  0.00     0.016 C 
HETATM    5  C   UNK N   1      29.420  47.681  58.506  0.00  0.00     0.163 C 
HETATM    6  C   UNK N   1      28.374  48.506  59.281  0.00  0.00     0.062 C 
HETATM    7  C   UNK N   1      28.882  49.626  60.235  0.00  0.00     0.068 C 
HETATM    8  C   UNK N   1      27.549  50.366  60.507  0.00  0.00     0.039 C 
HETATM    9  C   UNK N   1      26.978  50.512  59.100  0.00  0.00     0.013 C 
HETATM   10  C   UNK N   1      27.179  49.114  58.468  0.00  0.00    -0.028 C 
HETATM   11  C   UNK N   1      27.366  49.189  56.933  0.00  0.00     0.093 C 
HETATM   12  C   UNK N   1      25.900  48.259  58.702  0.00  0.00     0.016 C 
HETATM   13  C   UNK N   1      31.080  50.041  55.843  0.00  0.00     0.052 C 
ENDROOT
BRANCH   5  14
HETATM   14  O   UNK N   1      28.796  46.625  57.860  0.00  0.00    -0.308 OA
BRANCH  14  15
HETATM   15  C   UNK N   1      28.786  45.350  58.350  0.00  0.00     0.294 C 
HETATM   16  O   UNK N   1      27.728  44.769  58.542  0.00  0.00    -0.259 OA
BRANCH  15  17
HETATM   17  C   UNK N   1      30.060  44.647  58.618  0.00  0.00     0.039 A 
HETATM   18  C   UNK N   1      30.481  44.410  59.935  0.00  0.00     0.020 A 
HETATM   19  C   UNK N   1      31.687  43.747  60.181  0.00  0.00     0.038 A 
HETATM   20  C   UNK N   1      32.491  43.312  59.120  0.00  0.00     0.068 A 
HETATM   21  C   UNK N   1      32.071  43.553  57.796  0.00  0.00     0.038 A 
HETATM   22  C   UNK N   1      30.866  44.213  57.550  0.00  0.00     0.020 A 
BRANCH  20  23
HETATM   23  O   UNK N   1      33.655  42.671  59.405  0.00  0.00    -0.356 OA
HETATM   24  C   UNK N   1      33.750  41.388  59.902  0.00  0.00     0.210 C 
ENDBRANCH  20  23
ENDBRANCH  15  17
ENDBRANCH  14  15
ENDBRANCH   5  14
BRANCH   7  25
HETATM   25  O   UNK N   1      29.761  50.462  59.510  0.00  0.00    -0.389 OA
HETATM   26  H   UNK N   1      30.660  50.046  59.488  0.00  0.00     0.210 HD
ENDBRANCH   7  25
BRANCH   7  27
HETATM   27  C   UNK N   1      29.627  49.106  61.526  0.00  0.00     0.012 C 
HETATM   28  C   UNK N   1      29.622  50.159  62.649  0.00  0.00     0.012 C 
HETATM   29  C   UNK N   1      29.077  47.785  62.110  0.00  0.00     0.012 C 
ENDBRANCH   7  27
TORSDOF 6
ENDMDL
MODEL 7
REMARK VINA RESULT:      -5.5     14.825     17.728
REMARK  6 active torsions:
REMARK  status: ('A' for Active; 'I' for Inactive)
REMARK    1  A    between atoms: C_5  and  O_6 
REMARK    2  A    between atoms: O_6  and  C_7 
REMARK    3  A    between atoms: C_7  and  C_9 
REMARK    4  A    between atoms: C_12  and  O_13 
REMARK    5  A    between atoms: C_18  and  O_19 
REMARK    6  A    between atoms: C_18  and  C_21 
ROOT
HETATM    1  O   UNK N   1      29.948  40.252  59.050  0.00  0.00    -0.293 OA
HETATM    2  C   UNK N   1      29.989  41.420  59.408  0.00  0.00     0.155 C 
HETATM    3  C   UNK N   1      29.334  41.795  60.699  0.00  0.00    -0.018 C 
HETATM    4  C   UNK N   1      29.459  42.998  61.315  0.00  0.00     0.016 C 
HETATM    5  C   UNK N   1      30.269  44.195  60.861  0.00  0.00     0.163 C 
HETATM    6  C   UNK N   1      31.700  43.920  60.359  0.00  0.00     0.062 C 
HETATM    7  C   UNK N   1      32.713  43.269  61.347  0.00  0.00     0.068 C 
HETATM    8  C   UNK N   1      33.840  42.888  60.356  0.00  0.00     0.039 C 
HETATM    9  C   UNK N   1      33.056  42.219  59.230  0.00  0.00     0.013 C 
HETATM   10  C   UNK N   1      31.860  43.171  58.991  0.00  0.00    -0.028 C 
HETATM   11  C   UNK N   1      30.609  42.418  58.475  0.00  0.00     0.093 C 
HETATM   12  C   UNK N   1      32.235  44.192  57.878  0.00  0.00     0.016 C 
HETATM   13  C   UNK N   1      28.486  40.734  61.367  0.00  0.00     0.052 C 
ENDROOT
BRANCH   5  14
HETATM   14  O   UNK N   1      29.577  44.935  59.915  0.00  0.00    -0.308 OA
BRANCH  14  15
HETATM   15  C   UNK N   1      29.080  46.184  60.161  0.00  0.00     0.294 C 
HETATM   16  O   UNK N   1      28.362  46.385  61.131  0.00  0.00    -0.259 OA
BRANCH  15  17
HETATM   17  C   UNK N   1      29.438  47.314  59.275  0.00  0.00     0.039 A 
HETATM   18  C   UNK N   1      29.219  48.638  59.684  0.00  0.00     0.020 A 
HETATM   19  C   UNK N   1      29.558  49.700  58.841  0.00  0.00     0.038 A 
HETATM   20  C   UNK N   1      30.117  49.460  57.579  0.00  0.00     0.068 A 
HETATM   21  C   UNK N   1      30.334  48.130  57.167  0.00  0.00     0.038 A 
HETATM   22  C   UNK N   1      29.999  47.069  58.009  0.00  0.00     0.020 A 
BRANCH  20  23
HETATM   23  O   UNK N   1      30.432  50.523  56.793  0.00  0.00    -0.356 OA
HETATM   24  C   UNK N   1      30.480  50.501  55.414  0.00  0.00     0.210 C 
ENDBRANCH  20  23
ENDBRANCH  15  17
ENDBRANCH  14  15
ENDBRANCH   5  14
BRANCH   7  25
HETATM   25  O   UNK N   1      32.122  42.102  61.882  0.00  0.00    -0.389 OA
HETATM   26  H   UNK N   1      31.351  41.840  61.317  0.00  0.00     0.210 HD
ENDBRANCH   7  25
BRANCH   7  27
HETATM   27  C   UNK N   1      33.164  44.201  62.538  0.00  0.00     0.012 C 
HETATM   28  C   UNK N   1      32.584  43.725  63.883  0.00  0.00     0.012 C 
HETATM   29  C   UNK N   1      34.693  44.352  62.707  0.00  0.00     0.012 C 
ENDBRANCH   7  27
TORSDOF 6
ENDMDL
MODEL 8
REMARK VINA RESULT:      -5.4     14.535     17.313
REMARK  6 active torsions:
REMARK  status: ('A' for Active; 'I' for Inactive)
REMARK    1  A    between atoms: C_5  and  O_6 
REMARK    2  A    between atoms: O_6  and  C_7 
REMARK    3  A    between atoms: C_7  and  C_9 
REMARK    4  A    between atoms: C_12  and  O_13 
REMARK    5  A    between atoms: C_18  and  O_19 
REMARK    6  A    between atoms: C_18  and  C_21 
ROOT
HETATM    1  O   UNK N   1      32.416  42.863  56.380  0.00  0.00    -0.293 OA
HETATM    2  C   UNK N   1      31.851  43.112  57.435  0.00  0.00     0.155 C 
HETATM    3  C   UNK N   1      30.356  43.097  57.464  0.00  0.00    -0.018 C 
HETATM    4  C   UNK N   1      29.598  43.162  58.589  0.00  0.00     0.016 C 
HETATM    5  C   UNK N   1      30.072  43.253  60.025  0.00  0.00     0.163 C 
HETATM    6  C   UNK N   1      31.219  42.310  60.441  0.00  0.00     0.062 C 
HETATM    7  C   UNK N   1      30.985  40.775  60.331  0.00  0.00     0.068 C 
HETATM    8  C   UNK N   1      32.439  40.274  60.514  0.00  0.00     0.039 C 
HETATM    9  C   UNK N   1      33.207  41.182  59.559  0.00  0.00     0.013 C 
HETATM   10  C   UNK N   1      32.644  42.593  59.852  0.00  0.00    -0.028 C 
HETATM   11  C   UNK N   1      32.697  43.512  58.607  0.00  0.00     0.093 C 
HETATM   12  C   UNK N   1      33.528  43.283  60.931  0.00  0.00     0.016 C 
HETATM   13  C   UNK N   1      29.648  42.981  56.131  0.00  0.00     0.052 C 
ENDROOT
BRANCH   5  14
HETATM   14  O   UNK N   1      30.395  44.558  60.362  0.00  0.00    -0.308 OA
BRANCH  14  15
HETATM   15  C   UNK N   1      29.484  45.577  60.360  0.00  0.00     0.294 C 
HETATM   16  O   UNK N   1      28.520  45.547  61.112  0.00  0.00    -0.259 OA
BRANCH  15  17
HETATM   17  C   UNK N   1      29.678  46.744  59.472  0.00  0.00     0.039 A 
HETATM   18  C   UNK N   1      30.213  46.582  58.185  0.00  0.00     0.020 A 
HETATM   19  C   UNK N   1      30.394  47.690  57.353  0.00  0.00     0.038 A 
HETATM   20  C   UNK N   1      30.049  48.975  57.790  0.00  0.00     0.068 A 
HETATM   21  C   UNK N   1      29.514  49.140  59.083  0.00  0.00     0.038 A 
HETATM   22  C   UNK N   1      29.330  48.033  59.914  0.00  0.00     0.020 A 
BRANCH  20  23
HETATM   23  O   UNK N   1      30.242  50.023  56.947  0.00  0.00    -0.356 OA
HETATM   24  C   UNK N   1      31.107  50.026  55.872  0.00  0.00     0.210 C 
ENDBRANCH  20  23
ENDBRANCH  15  17
ENDBRANCH  14  15
ENDBRANCH   5  14
BRANCH   7  25
HETATM   25  O   UNK N   1      30.534  40.488  59.023  0.00  0.00    -0.389 OA
HETATM   26  H   UNK N   1      29.582  40.752  58.943  0.00  0.00     0.210 HD
ENDBRANCH   7  25
BRANCH   7  27
HETATM   27  C   UNK N   1      29.946  40.190  61.365  0.00  0.00     0.012 C 
HETATM   28  C   UNK N   1      28.507  40.254  60.823  0.00  0.00     0.012 C 
HETATM   29  C   UNK N   1      30.221  38.737  61.817  0.00  0.00     0.012 C 
ENDBRANCH   7  27
TORSDOF 6
ENDMDL
MODEL 9
REMARK VINA RESULT:      -5.3     15.106     17.372
REMARK  6 active torsions:
REMARK  status: ('A' for Active; 'I' for Inactive)
REMARK    1  A    between atoms: C_5  and  O_6 
REMARK    2  A    between atoms: O_6  and  C_7 
REMARK    3  A    between atoms: C_7  and  C_9 
REMARK    4  A    between atoms: C_12  and  O_13 
REMARK    5  A    between atoms: C_18  and  O_19 
REMARK    6  A    between atoms: C_18  and  C_21 
ROOT
HETATM    1  O   UNK N   1      27.686  40.772  60.372  0.00  0.00    -0.293 OA
HETATM    2  C   UNK N   1      28.418  41.497  59.715  0.00  0.00     0.155 C 
HETATM    3  C   UNK N   1      29.754  40.972  59.297  0.00  0.00    -0.018 C 
HETATM    4  C   UNK N   1      30.588  41.579  58.414  0.00  0.00     0.016 C 
HETATM    5  C   UNK N   1      30.364  42.877  57.666  0.00  0.00     0.163 C 
HETATM    6  C   UNK N   1      28.979  43.081  57.021  0.00  0.00     0.062 C 
HETATM    7  C   UNK N   1      28.515  42.064  55.938  0.00  0.00     0.068 C 
HETATM    8  C   UNK N   1      27.019  42.447  55.840  0.00  0.00     0.039 C 
HETATM    9  C   UNK N   1      26.613  42.512  57.309  0.00  0.00     0.013 C 
HETATM   10  C   UNK N   1      27.757  43.310  57.978  0.00  0.00    -0.028 C 
HETATM   11  C   UNK N   1      27.964  42.904  59.457  0.00  0.00     0.093 C 
HETATM   12  C   UNK N   1      27.384  44.820  57.996  0.00  0.00     0.016 C 
HETATM   13  C   UNK N   1      30.187  39.652  59.899  0.00  0.00     0.052 C 
ENDROOT
BRANCH   5  14
HETATM   14  O   UNK N   1      30.675  43.970  58.461  0.00  0.00    -0.308 OA
BRANCH  14  15
HETATM   15  C   UNK N   1      31.192  45.132  57.962  0.00  0.00     0.294 C 
HETATM   16  O   UNK N   1      32.165  45.109  57.221  0.00  0.00    -0.259 OA
BRANCH  15  17
HETATM   17  C   UNK N   1      30.556  46.428  58.286  0.00  0.00     0.039 A 
HETATM   18  C   UNK N   1      30.415  47.419  57.304  0.00  0.00     0.020 A 
HETATM   19  C   UNK N   1      29.815  48.642  57.618  0.00  0.00     0.038 A 
HETATM   20  C   UNK N   1      29.348  48.896  58.914  0.00  0.00     0.068 A 
HETATM   21  C   UNK N   1      29.493  47.902  59.903  0.00  0.00     0.038 A 
HETATM   22  C   UNK N   1      30.090  46.680  59.589  0.00  0.00     0.020 A 
BRANCH  20  23
HETATM   23  O   UNK N   1      28.771  50.098  59.175  0.00  0.00    -0.356 OA
HETATM   24  C   UNK N   1      28.811  51.194  58.337  0.00  0.00     0.210 C 
ENDBRANCH  20  23
ENDBRANCH  15  17
ENDBRANCH  14  15
ENDBRANCH   5  14
BRANCH   7  25
HETATM   25  O   UNK N   1      28.648  40.760  56.468  0.00  0.00    -0.389 OA
HETATM   26  H   UNK N   1      28.169  40.121  55.881  0.00  0.00     0.210 HD
ENDBRANCH   7  25
BRANCH   7  27
HETATM   27  C   UNK N   1      29.311  42.141  54.577  0.00  0.00     0.012 C 
HETATM   28  C   UNK N   1      30.431  41.086  54.513  0.00  0.00     0.012 C 
HETATM   29  C   UNK N   1      28.446  41.994  53.305  0.00  0.00     0.012 C 
ENDBRANCH   7  27
TORSDOF 6
ENDMDL
