MODEL 1
REMARK VINA RESULT:      -5.7      0.000      0.000
REMARK  6 active torsions:
REMARK  status: ('A' for Active; 'I' for Inactive)
REMARK    1  A    between atoms: C_2  and  O_3 
REMARK    2  A    between atoms: C_2  and  C_21 
REMARK    3  A    between atoms: O_3  and  C_4 
REMARK    4  A    between atoms: C_6  and  O_7 
REMARK    5  A    between atoms: C_9  and  C_10 
REMARK    6  A    between atoms: C_24  and  O_25 
ROOT
HETATM    1  C   UNK N   1      29.677  55.572  40.301  0.00  0.00     0.166 C 
HETATM    2  C   UNK N   1      29.881  54.326  39.377  0.00  0.00     0.018 C 
HETATM    3  C   UNK N   1      28.544  53.916  38.669  0.00  0.00     0.072 C 
HETATM    4  C   UNK N   1      27.768  53.088  39.770  0.00  0.00     0.024 C 
HETATM    5  C   UNK N   1      28.847  52.641  40.788  0.00  0.00     0.009 C 
HETATM    6  C   UNK N   1      30.167  53.035  40.169  0.00  0.00     0.016 C 
HETATM    7  C   UNK N   1      27.644  55.097  38.188  0.00  0.00     0.043 C 
HETATM    8  C   UNK N   1      28.346  56.237  37.469  0.00  0.00     0.036 C 
HETATM    9  C   UNK N   1      29.084  57.213  38.370  0.00  0.00    -0.085 C 
HETATM   10  C   UNK N   1      29.636  56.915  39.576  0.00  0.00     0.008 C 
HETATM   11  C   UNK N   1      29.214  58.628  37.853  0.00  0.00     0.043 C 
HETATM   12  C   UNK N   1      31.101  54.567  38.440  0.00  0.00     0.021 C 
ENDROOT
BRANCH   1  13
HETATM   13  O   UNK N   1      30.768  55.648  41.150  0.00  0.00    -0.307 OA
BRANCH  13  14
HETATM   14  C   UNK N   1      30.734  55.687  42.505  0.00  0.00     0.294 C 
HETATM   15  O   UNK N   1      29.975  56.446  43.090  0.00  0.00    -0.259 OA
BRANCH  14  16
HETATM   16  C   UNK N   1      31.638  54.795  43.265  0.00  0.00     0.039 A 
HETATM   17  C   UNK N   1      31.378  53.416  43.331  0.00  0.00     0.020 A 
HETATM   18  C   UNK N   1      32.229  52.570  44.047  0.00  0.00     0.038 A 
HETATM   19  C   UNK N   1      33.350  53.085  44.707  0.00  0.00     0.068 A 
HETATM   20  C   UNK N   1      33.612  54.469  44.640  0.00  0.00     0.038 A 
HETATM   21  C   UNK N   1      32.762  55.315  43.926  0.00  0.00     0.020 A 
BRANCH  19  22
HETATM   22  O   UNK N   1      34.152  52.228  45.391  0.00  0.00    -0.356 OA
HETATM   23  C   UNK N   1      34.470  50.950  44.978  0.00  0.00     0.210 C 
ENDBRANCH  19  22
ENDBRANCH  14  16
ENDBRANCH  13  14
ENDBRANCH   1  13
BRANCH   3  24
HETATM   24  O   UNK N   1      28.846  53.041  37.602  0.00  0.00    -0.389 OA
HETATM   25  H   UNK N   1      29.566  52.425  37.894  0.00  0.00     0.210 HD
ENDBRANCH   3  24
BRANCH   4  26
HETATM   26  C   UNK N   1      26.842  51.917  39.287  0.00  0.00    -0.016 C 
HETATM   27  C   UNK N   1      26.819  50.764  40.313  0.00  0.00     0.010 C 
HETATM   28  C   UNK N   1      25.389  52.358  39.054  0.00  0.00     0.010 C 
ENDBRANCH   4  26
TORSDOF 6
ENDMDL
MODEL 2
REMARK VINA RESULT:      -5.6      1.868      4.441
REMARK  6 active torsions:
REMARK  status: ('A' for Active; 'I' for Inactive)
REMARK    1  A    between atoms: C_2  and  O_3 
REMARK    2  A    between atoms: C_2  and  C_21 
REMARK    3  A    between atoms: O_3  and  C_4 
REMARK    4  A    between atoms: C_6  and  O_7 
REMARK    5  A    between atoms: C_9  and  C_10 
REMARK    6  A    between atoms: C_24  and  O_25 
ROOT
HETATM    1  C   UNK N   1      28.665  54.206  40.789  0.00  0.00     0.166 C 
HETATM    2  C   UNK N   1      27.997  55.606  40.995  0.00  0.00     0.018 C 
HETATM    3  C   UNK N   1      27.555  56.235  39.630  0.00  0.00     0.072 C 
HETATM    4  C   UNK N   1      28.888  56.854  39.046  0.00  0.00     0.024 C 
HETATM    5  C   UNK N   1      29.837  57.011  40.261  0.00  0.00     0.009 C 
HETATM    6  C   UNK N   1      28.995  56.681  41.471  0.00  0.00     0.016 C 
HETATM    7  C   UNK N   1      26.955  55.238  38.589  0.00  0.00     0.043 C 
HETATM    8  C   UNK N   1      25.939  54.237  39.113  0.00  0.00     0.036 C 
HETATM    9  C   UNK N   1      26.527  53.050  39.859  0.00  0.00    -0.085 C 
HETATM   10  C   UNK N   1      27.692  53.053  40.560  0.00  0.00     0.008 C 
HETATM   11  C   UNK N   1      25.720  51.772  39.816  0.00  0.00     0.043 C 
HETATM   12  C   UNK N   1      26.890  55.497  42.085  0.00  0.00     0.021 C 
ENDROOT
BRANCH   1  13
HETATM   13  O   UNK N   1      29.342  53.888  41.954  0.00  0.00    -0.307 OA
BRANCH  13  14
HETATM   14  C   UNK N   1      30.571  53.323  42.043  0.00  0.00     0.294 C 
HETATM   15  O   UNK N   1      30.898  52.414  41.294  0.00  0.00    -0.259 OA
BRANCH  14  16
HETATM   16  C   UNK N   1      31.511  53.825  43.070  0.00  0.00     0.039 A 
HETATM   17  C   UNK N   1      31.656  55.207  43.280  0.00  0.00     0.020 A 
HETATM   18  C   UNK N   1      32.542  55.686  44.249  0.00  0.00     0.038 A 
HETATM   19  C   UNK N   1      33.296  54.796  45.022  0.00  0.00     0.068 A 
HETATM   20  C   UNK N   1      33.151  53.409  44.811  0.00  0.00     0.038 A 
HETATM   21  C   UNK N   1      32.267  52.930  43.843  0.00  0.00     0.020 A 
BRANCH  19  22
HETATM   22  O   UNK N   1      34.145  55.302  45.953  0.00  0.00    -0.356 OA
HETATM   23  C   UNK N   1      34.420  56.645  46.119  0.00  0.00     0.210 C 
ENDBRANCH  19  22
ENDBRANCH  14  16
ENDBRANCH  13  14
ENDBRANCH   1  13
BRANCH   3  24
HETATM   24  O   UNK N   1      26.661  57.297  39.889  0.00  0.00    -0.389 OA
HETATM   25  H   UNK N   1      26.041  57.019  40.611  0.00  0.00     0.210 HD
ENDBRANCH   3  24
BRANCH   4  26
HETATM   26  C   UNK N   1      28.770  58.154  38.175  0.00  0.00    -0.016 C 
HETATM   27  C   UNK N   1      29.464  59.350  38.860  0.00  0.00     0.010 C 
HETATM   28  C   UNK N   1      29.389  57.997  36.778  0.00  0.00     0.010 C 
ENDBRANCH   4  26
TORSDOF 6
ENDMDL
MODEL 3
REMARK VINA RESULT:      -5.5      1.721      2.134
REMARK  6 active torsions:
REMARK  status: ('A' for Active; 'I' for Inactive)
REMARK    1  A    between atoms: C_2  and  O_3 
REMARK    2  A    between atoms: C_2  and  C_21 
REMARK    3  A    between atoms: O_3  and  C_4 
REMARK    4  A    between atoms: C_6  and  O_7 
REMARK    5  A    between atoms: C_9  and  C_10 
REMARK    6  A    between atoms: C_24  and  O_25 
ROOT
HETATM    1  C   UNK N   1      29.418  54.817  41.815  0.00  0.00     0.166 C 
HETATM    2  C   UNK N   1      29.429  54.465  40.291  0.00  0.00     0.018 C 
HETATM    3  C   UNK N   1      27.975  54.271  39.739  0.00  0.00     0.072 C 
HETATM    4  C   UNK N   1      27.597  52.797  40.172  0.00  0.00     0.024 C 
HETATM    5  C   UNK N   1      28.947  52.090  40.451  0.00  0.00     0.009 C 
HETATM    6  C   UNK N   1      30.009  53.066  40.004  0.00  0.00     0.016 C 
HETATM    7  C   UNK N   1      26.903  55.258  40.298  0.00  0.00     0.043 C 
HETATM    8  C   UNK N   1      27.298  56.724  40.364  0.00  0.00     0.036 C 
HETATM    9  C   UNK N   1      28.199  57.098  41.530  0.00  0.00    -0.085 C 
HETATM   10  C   UNK N   1      29.089  56.271  42.140  0.00  0.00     0.008 C 
HETATM   11  C   UNK N   1      28.087  58.522  42.026  0.00  0.00     0.043 C 
HETATM   12  C   UNK N   1      30.315  55.492  39.526  0.00  0.00     0.021 C 
ENDROOT
BRANCH   1  13
HETATM   13  O   UNK N   1      30.699  54.614  42.302  0.00  0.00    -0.307 OA
BRANCH  13  14
HETATM   14  C   UNK N   1      31.029  54.066  43.496  0.00  0.00     0.294 C 
HETATM   15  O   UNK N   1      30.522  54.470  44.532  0.00  0.00    -0.259 OA
BRANCH  14  16
HETATM   16  C   UNK N   1      32.022  52.969  43.525  0.00  0.00     0.039 A 
HETATM   17  C   UNK N   1      31.833  51.824  42.732  0.00  0.00     0.020 A 
HETATM   18  C   UNK N   1      32.768  50.786  42.754  0.00  0.00     0.038 A 
HETATM   19  C   UNK N   1      33.904  50.872  43.567  0.00  0.00     0.068 A 
HETATM   20  C   UNK N   1      34.094  52.021  44.363  0.00  0.00     0.038 A 
HETATM   21  C   UNK N   1      33.161  53.058  44.341  0.00  0.00     0.020 A 
BRANCH  19  22
HETATM   22  O   UNK N   1      34.788  49.841  43.559  0.00  0.00    -0.356 OA
HETATM   23  C   UNK N   1      36.095  49.930  43.124  0.00  0.00     0.210 C 
ENDBRANCH  19  22
ENDBRANCH  14  16
ENDBRANCH  13  14
ENDBRANCH   1  13
BRANCH   3  24
HETATM   24  O   UNK N   1      28.016  54.311  38.328  0.00  0.00    -0.389 OA
HETATM   25  H   UNK N   1      28.959  54.420  38.043  0.00  0.00     0.210 HD
ENDBRANCH   3  24
BRANCH   4  26
HETATM   26  C   UNK N   1      26.648  51.978  39.228  0.00  0.00    -0.016 C 
HETATM   27  C   UNK N   1      26.411  50.554  39.772  0.00  0.00     0.010 C 
HETATM   28  C   UNK N   1      25.273  52.638  39.041  0.00  0.00     0.010 C 
ENDBRANCH   4  26
TORSDOF 6
ENDMDL
MODEL 4
REMARK VINA RESULT:      -5.5     10.727     16.250
REMARK  6 active torsions:
REMARK  status: ('A' for Active; 'I' for Inactive)
REMARK    1  A    between atoms: C_2  and  O_3 
REMARK    2  A    between atoms: C_2  and  C_21 
REMARK    3  A    between atoms: O_3  and  C_4 
REMARK    4  A    between atoms: C_6  and  O_7 
REMARK    5  A    between atoms: C_9  and  C_10 
REMARK    6  A    between atoms: C_24  and  O_25 
ROOT
HETATM    1  C   UNK N   1      40.283  45.180  47.582  0.00  0.00     0.166 C 
HETATM    2  C   UNK N   1      41.417  45.371  48.642  0.00  0.00     0.018 C 
HETATM    3  C   UNK N   1      41.743  44.028  49.380  0.00  0.00     0.072 C 
HETATM    4  C   UNK N   1      40.609  43.911  50.477  0.00  0.00     0.024 C 
HETATM    5  C   UNK N   1      40.056  45.348  50.654  0.00  0.00     0.009 C 
HETATM    6  C   UNK N   1      40.974  46.232  49.843  0.00  0.00     0.016 C 
HETATM    7  C   UNK N   1      41.726  42.746  48.489  0.00  0.00     0.043 C 
HETATM    8  C   UNK N   1      42.426  42.844  47.144  0.00  0.00     0.036 C 
HETATM    9  C   UNK N   1      41.644  43.566  46.059  0.00  0.00    -0.085 C 
HETATM   10  C   UNK N   1      40.730  44.551  46.264  0.00  0.00     0.008 C 
HETATM   11  C   UNK N   1      41.936  43.144  44.637  0.00  0.00     0.043 C 
HETATM   12  C   UNK N   1      42.627  46.096  47.983  0.00  0.00     0.021 C 
ENDROOT
BRANCH   1  13
HETATM   13  O   UNK N   1      39.806  46.435  47.245  0.00  0.00    -0.307 OA
BRANCH  13  14
HETATM   14  C   UNK N   1      39.113  46.760  46.126  0.00  0.00     0.294 C 
HETATM   15  O   UNK N   1      38.233  46.027  45.700  0.00  0.00    -0.259 OA
BRANCH  14  16
HETATM   16  C   UNK N   1      39.447  48.020  45.424  0.00  0.00     0.039 A 
HETATM   17  C   UNK N   1      38.528  48.594  44.529  0.00  0.00     0.020 A 
HETATM   18  C   UNK N   1      38.838  49.784  43.865  0.00  0.00     0.038 A 
HETATM   19  C   UNK N   1      40.066  50.418  44.082  0.00  0.00     0.068 A 
HETATM   20  C   UNK N   1      40.988  49.842  44.980  0.00  0.00     0.038 A 
HETATM   21  C   UNK N   1      40.680  48.654  45.644  0.00  0.00     0.020 A 
BRANCH  19  22
HETATM   22  O   UNK N   1      40.327  51.573  43.416  0.00  0.00    -0.356 OA
HETATM   23  C   UNK N   1      39.769  51.926  42.205  0.00  0.00     0.210 C 
ENDBRANCH  19  22
ENDBRANCH  14  16
ENDBRANCH  13  14
ENDBRANCH   1  13
BRANCH   3  24
HETATM   24  O   UNK N   1      42.979  44.165  50.048  0.00  0.00    -0.389 OA
HETATM   25  H   UNK N   1      43.117  45.123  50.262  0.00  0.00     0.210 HD
ENDBRANCH   3  24
BRANCH   4  26
HETATM   26  C   UNK N   1      40.973  43.212  51.833  0.00  0.00    -0.016 C 
HETATM   27  C   UNK N   1      41.839  44.131  52.721  0.00  0.00     0.010 C 
HETATM   28  C   UNK N   1      39.737  42.809  52.651  0.00  0.00     0.010 C 
ENDBRANCH   4  26
TORSDOF 6
ENDMDL
MODEL 5
REMARK VINA RESULT:      -5.5     18.839     22.879
REMARK  6 active torsions:
REMARK  status: ('A' for Active; 'I' for Inactive)
REMARK    1  A    between atoms: C_2  and  O_3 
REMARK    2  A    between atoms: C_2  and  C_21 
REMARK    3  A    between atoms: O_3  and  C_4 
REMARK    4  A    between atoms: C_6  and  O_7 
REMARK    5  A    between atoms: C_9  and  C_10 
REMARK    6  A    between atoms: C_24  and  O_25 
ROOT
HETATM    1  C   UNK N   1      32.105  44.137  61.724  0.00  0.00     0.166 C 
HETATM    2  C   UNK N   1      30.594  44.144  61.319  0.00  0.00     0.018 C 
HETATM    3  C   UNK N   1      30.408  44.547  59.816  0.00  0.00     0.072 C 
HETATM    4  C   UNK N   1      30.506  46.126  59.830  0.00  0.00     0.024 C 
HETATM    5  C   UNK N   1      30.223  46.543  61.295  0.00  0.00     0.009 C 
HETATM    6  C   UNK N   1      29.797  45.275  61.997  0.00  0.00     0.016 C 
HETATM    7  C   UNK N   1      31.472  43.978  58.826  0.00  0.00     0.043 C 
HETATM    8  C   UNK N   1      31.829  42.509  58.984  0.00  0.00     0.036 C 
HETATM    9  C   UNK N   1      32.778  42.194  60.129  0.00  0.00    -0.085 C 
HETATM   10  C   UNK N   1      32.887  42.903  61.284  0.00  0.00     0.008 C 
HETATM   11  C   UNK N   1      33.654  40.974  59.951  0.00  0.00     0.043 C 
HETATM   12  C   UNK N   1      29.935  42.800  61.749  0.00  0.00     0.021 C 
ENDROOT
BRANCH   1  13
HETATM   13  O   UNK N   1      32.169  44.136  63.107  0.00  0.00    -0.307 OA
BRANCH  13  14
HETATM   14  C   UNK N   1      33.285  44.278  63.863  0.00  0.00     0.294 C 
HETATM   15  O   UNK N   1      33.474  43.569  64.840  0.00  0.00    -0.259 OA
BRANCH  14  16
HETATM   16  C   UNK N   1      34.272  45.315  63.485  0.00  0.00     0.039 A 
HETATM   17  C   UNK N   1      35.535  44.942  62.993  0.00  0.00     0.020 A 
HETATM   18  C   UNK N   1      36.470  45.916  62.635  0.00  0.00     0.038 A 
HETATM   19  C   UNK N   1      36.162  47.275  62.762  0.00  0.00     0.068 A 
HETATM   20  C   UNK N   1      34.895  47.650  63.256  0.00  0.00     0.038 A 
HETATM   21  C   UNK N   1      33.961  46.677  63.614  0.00  0.00     0.020 A 
BRANCH  19  22
HETATM   22  O   UNK N   1      37.099  48.190  62.402  0.00  0.00    -0.356 OA
HETATM   23  C   UNK N   1      38.375  47.882  61.976  0.00  0.00     0.210 C 
ENDBRANCH  19  22
ENDBRANCH  14  16
ENDBRANCH  13  14
ENDBRANCH   1  13
BRANCH   3  24
HETATM   24  O   UNK N   1      29.101  44.198  59.411  0.00  0.00    -0.389 OA
HETATM   25  H   UNK N   1      28.537  44.095  60.220  0.00  0.00     0.210 HD
ENDBRANCH   3  24
BRANCH   4  26
HETATM   26  C   UNK N   1      29.655  46.921  58.779  0.00  0.00    -0.016 C 
HETATM   27  C   UNK N   1      29.117  48.238  59.377  0.00  0.00     0.010 C 
HETATM   28  C   UNK N   1      30.447  47.277  57.512  0.00  0.00     0.010 C 
ENDBRANCH   4  26
TORSDOF 6
ENDMDL
MODEL 6
REMARK VINA RESULT:      -5.5     19.364     23.976
REMARK  6 active torsions:
REMARK  status: ('A' for Active; 'I' for Inactive)
REMARK    1  A    between atoms: C_2  and  O_3 
REMARK    2  A    between atoms: C_2  and  C_21 
REMARK    3  A    between atoms: O_3  and  C_4 
REMARK    4  A    between atoms: C_6  and  O_7 
REMARK    5  A    between atoms: C_9  and  C_10 
REMARK    6  A    between atoms: C_24  and  O_25 
ROOT
HETATM    1  C   UNK N   1      32.743  45.876  63.064  0.00  0.00     0.166 C 
HETATM    2  C   UNK N   1      33.866  45.705  64.138  0.00  0.00     0.018 C 
HETATM    3  C   UNK N   1      34.994  46.779  63.962  0.00  0.00     0.072 C 
HETATM    4  C   UNK N   1      35.893  46.200  62.796  0.00  0.00     0.024 C 
HETATM    5  C   UNK N   1      35.570  44.686  62.740  0.00  0.00     0.009 C 
HETATM    6  C   UNK N   1      34.693  44.419  63.940  0.00  0.00     0.016 C 
HETATM    7  C   UNK N   1      34.509  48.211  63.571  0.00  0.00     0.043 C 
HETATM    8  C   UNK N   1      33.315  48.756  64.336  0.00  0.00     0.036 C 
HETATM    9  C   UNK N   1      31.964  48.216  63.895  0.00  0.00    -0.085 C 
HETATM   10  C   UNK N   1      31.741  46.992  63.348  0.00  0.00     0.008 C 
HETATM   11  C   UNK N   1      30.780  49.133  64.108  0.00  0.00     0.043 C 
HETATM   12  C   UNK N   1      33.223  45.621  65.554  0.00  0.00     0.021 C 
ENDROOT
BRANCH   1  13
HETATM   13  O   UNK N   1      31.997  44.710  63.046  0.00  0.00    -0.307 OA
BRANCH  13  14
HETATM   14  C   UNK N   1      31.061  44.366  62.128  0.00  0.00     0.294 C 
HETATM   15  O   UNK N   1      29.878  44.317  62.428  0.00  0.00    -0.259 OA
BRANCH  14  16
HETATM   16  C   UNK N   1      31.501  44.043  60.752  0.00  0.00     0.039 A 
HETATM   17  C   UNK N   1      30.853  44.625  59.649  0.00  0.00     0.020 A 
HETATM   18  C   UNK N   1      31.265  44.324  58.348  0.00  0.00     0.038 A 
HETATM   19  C   UNK N   1      32.326  43.439  58.126  0.00  0.00     0.068 A 
HETATM   20  C   UNK N   1      32.975  42.854  59.234  0.00  0.00     0.038 A 
HETATM   21  C   UNK N   1      32.565  43.154  60.533  0.00  0.00     0.020 A 
BRANCH  19  22
HETATM   22  O   UNK N   1      32.694  43.174  56.846  0.00  0.00    -0.356 OA
HETATM   23  C   UNK N   1      31.839  42.732  55.857  0.00  0.00     0.210 C 
ENDBRANCH  19  22
ENDBRANCH  14  16
ENDBRANCH  13  14
ENDBRANCH   1  13
BRANCH   3  24
HETATM   24  O   UNK N   1      35.777  46.812  65.137  0.00  0.00    -0.389 OA
HETATM   25  H   UNK N   1      36.225  47.694  65.193  0.00  0.00     0.210 HD
ENDBRANCH   3  24
BRANCH   4  26
HETATM   26  C   UNK N   1      37.430  46.510  62.836  0.00  0.00    -0.016 C 
HETATM   27  C   UNK N   1      38.260  45.270  62.442  0.00  0.00     0.010 C 
HETATM   28  C   UNK N   1      37.836  47.655  61.896  0.00  0.00     0.010 C 
ENDBRANCH   4  26
TORSDOF 6
ENDMDL
MODEL 7
REMARK VINA RESULT:      -5.4      1.956      2.808
REMARK  6 active torsions:
REMARK  status: ('A' for Active; 'I' for Inactive)
REMARK    1  A    between atoms: C_2  and  O_3 
REMARK    2  A    between atoms: C_2  and  C_21 
REMARK    3  A    between atoms: O_3  and  C_4 
REMARK    4  A    between atoms: C_6  and  O_7 
REMARK    5  A    between atoms: C_9  and  C_10 
REMARK    6  A    between atoms: C_24  and  O_25 
ROOT
HETATM    1  C   UNK N   1      28.972  53.949  41.247  0.00  0.00     0.166 C 
HETATM    2  C   UNK N   1      28.377  53.611  39.840  0.00  0.00     0.018 C 
HETATM    3  C   UNK N   1      26.824  53.413  39.908  0.00  0.00     0.072 C 
HETATM    4  C   UNK N   1      26.652  51.933  40.439  0.00  0.00     0.024 C 
HETATM    5  C   UNK N   1      28.004  51.232  40.153  0.00  0.00     0.009 C 
HETATM    6  C   UNK N   1      28.799  52.218  39.331  0.00  0.00     0.016 C 
HETATM    7  C   UNK N   1      26.060  54.389  40.857  0.00  0.00     0.043 C 
HETATM    8  C   UNK N   1      26.446  55.856  40.777  0.00  0.00     0.036 C 
HETATM    9  C   UNK N   1      27.735  56.226  41.494  0.00  0.00    -0.085 C 
HETATM   10  C   UNK N   1      28.796  55.398  41.692  0.00  0.00     0.008 C 
HETATM   11  C   UNK N   1      27.826  57.644  42.009  0.00  0.00     0.043 C 
HETATM   12  C   UNK N   1      28.885  54.651  38.798  0.00  0.00     0.021 C 
ENDROOT
BRANCH   1  13
HETATM   13  O   UNK N   1      30.341  53.750  41.183  0.00  0.00    -0.307 OA
BRANCH  13  14
HETATM   14  C   UNK N   1      31.084  52.990  42.024  0.00  0.00     0.294 C 
HETATM   15  O   UNK N   1      31.115  51.774  41.905  0.00  0.00    -0.259 OA
BRANCH  14  16
HETATM   16  C   UNK N   1      31.857  53.660  43.094  0.00  0.00     0.039 A 
HETATM   17  C   UNK N   1      32.642  52.901  43.979  0.00  0.00     0.020 A 
HETATM   18  C   UNK N   1      33.373  53.529  44.990  0.00  0.00     0.038 A 
HETATM   19  C   UNK N   1      33.333  54.920  45.135  0.00  0.00     0.068 A 
HETATM   20  C   UNK N   1      32.545  55.682  44.247  0.00  0.00     0.038 A 
HETATM   21  C   UNK N   1      31.814  55.055  43.237  0.00  0.00     0.020 A 
BRANCH  19  22
HETATM   22  O   UNK N   1      34.060  55.491  46.131  0.00  0.00    -0.356 OA
HETATM   23  C   UNK N   1      34.411  56.824  46.184  0.00  0.00     0.210 C 
ENDBRANCH  19  22
ENDBRANCH  14  16
ENDBRANCH  13  14
ENDBRANCH   1  13
BRANCH   3  24
HETATM   24  O   UNK N   1      26.302  53.466  38.597  0.00  0.00    -0.389 OA
HETATM   25  H   UNK N   1      27.038  53.693  37.973  0.00  0.00     0.210 HD
ENDBRANCH   3  24
BRANCH   4  26
HETATM   26  C   UNK N   1      25.408  51.117  39.940  0.00  0.00    -0.016 C 
HETATM   27  C   UNK N   1      25.710  50.395  38.611  0.00  0.00     0.010 C 
HETATM   28  C   UNK N   1      24.944  50.055  40.949  0.00  0.00     0.010 C 
ENDBRANCH   4  26
TORSDOF 6
ENDMDL
MODEL 8
REMARK VINA RESULT:      -5.3     18.615     21.920
REMARK  6 active torsions:
REMARK  status: ('A' for Active; 'I' for Inactive)
REMARK    1  A    between atoms: C_2  and  O_3 
REMARK    2  A    between atoms: C_2  and  C_21 
REMARK    3  A    between atoms: O_3  and  C_4 
REMARK    4  A    between atoms: C_6  and  O_7 
REMARK    5  A    between atoms: C_9  and  C_10 
REMARK    6  A    between atoms: C_24  and  O_25 
ROOT
HETATM    1  C   UNK N   1      31.594  42.988  59.354  0.00  0.00     0.166 C 
HETATM    2  C   UNK N   1      30.893  43.910  58.302  0.00  0.00     0.018 C 
HETATM    3  C   UNK N   1      29.657  43.198  57.653  0.00  0.00     0.072 C 
HETATM    4  C   UNK N   1      30.294  42.264  56.546  0.00  0.00     0.024 C 
HETATM    5  C   UNK N   1      31.703  42.848  56.274  0.00  0.00     0.009 C 
HETATM    6  C   UNK N   1      31.754  44.145  57.045  0.00  0.00     0.016 C 
HETATM    7  C   UNK N   1      28.791  42.330  58.619  0.00  0.00     0.043 C 
HETATM    8  C   UNK N   1      28.454  42.945  59.966  0.00  0.00     0.036 C 
HETATM    9  C   UNK N   1      29.574  42.908  60.993  0.00  0.00    -0.085 C 
HETATM   10  C   UNK N   1      30.904  42.918  60.714  0.00  0.00     0.008 C 
HETATM   11  C   UNK N   1      29.146  42.871  62.443  0.00  0.00     0.043 C 
HETATM   12  C   UNK N   1      30.619  45.306  58.936  0.00  0.00     0.021 C 
ENDROOT
BRANCH   1  13
HETATM   13  O   UNK N   1      32.848  43.516  59.607  0.00  0.00    -0.307 OA
BRANCH  13  14
HETATM   14  C   UNK N   1      33.857  42.911  60.281  0.00  0.00     0.294 C 
HETATM   15  O   UNK N   1      34.136  41.741  60.070  0.00  0.00    -0.259 OA
BRANCH  14  16
HETATM   16  C   UNK N   1      34.612  43.695  61.284  0.00  0.00     0.039 A 
HETATM   17  C   UNK N   1      35.910  44.149  60.994  0.00  0.00     0.020 A 
HETATM   18  C   UNK N   1      36.627  44.890  61.937  0.00  0.00     0.038 A 
HETATM   19  C   UNK N   1      36.063  45.189  63.182  0.00  0.00     0.068 A 
HETATM   20  C   UNK N   1      34.760  44.733  63.473  0.00  0.00     0.038 A 
HETATM   21  C   UNK N   1      34.043  43.993  62.532  0.00  0.00     0.020 A 
BRANCH  19  22
HETATM   22  O   UNK N   1      36.793  45.912  64.070  0.00  0.00    -0.356 OA
HETATM   23  C   UNK N   1      38.044  46.437  63.816  0.00  0.00     0.210 C 
ENDBRANCH  19  22
ENDBRANCH  14  16
ENDBRANCH  13  14
ENDBRANCH   1  13
BRANCH   3  24
HETATM   24  O   UNK N   1      28.868  44.169  56.998  0.00  0.00    -0.389 OA
HETATM   25  H   UNK N   1      27.996  44.235  57.465  0.00  0.00     0.210 HD
ENDBRANCH   3  24
BRANCH   4  26
HETATM   26  C   UNK N   1      29.463  42.006  55.241  0.00  0.00    -0.016 C 
HETATM   27  C   UNK N   1      30.387  41.727  54.036  0.00  0.00     0.010 C 
HETATM   28  C   UNK N   1      28.498  40.817  55.369  0.00  0.00     0.010 C 
ENDBRANCH   4  26
TORSDOF 6
ENDMDL
MODEL 9
REMARK VINA RESULT:      -5.3      2.354      4.130
REMARK  6 active torsions:
REMARK  status: ('A' for Active; 'I' for Inactive)
REMARK    1  A    between atoms: C_2  and  O_3 
REMARK    2  A    between atoms: C_2  and  C_21 
REMARK    3  A    between atoms: O_3  and  C_4 
REMARK    4  A    between atoms: C_6  and  O_7 
REMARK    5  A    between atoms: C_9  and  C_10 
REMARK    6  A    between atoms: C_24  and  O_25 
ROOT
HETATM    1  C   UNK N   1      28.732  53.983  40.072  0.00  0.00     0.166 C 
HETATM    2  C   UNK N   1      27.298  54.431  40.508  0.00  0.00     0.018 C 
HETATM    3  C   UNK N   1      26.880  55.769  39.808  0.00  0.00     0.072 C 
HETATM    4  C   UNK N   1      27.592  56.889  40.669  0.00  0.00     0.024 C 
HETATM    5  C   UNK N   1      27.911  56.221  42.031  0.00  0.00     0.009 C 
HETATM    6  C   UNK N   1      27.231  54.873  41.984  0.00  0.00     0.016 C 
HETATM    7  C   UNK N   1      27.317  55.917  38.316  0.00  0.00     0.043 C 
HETATM    8  C   UNK N   1      27.095  54.709  37.421  0.00  0.00     0.036 C 
HETATM    9  C   UNK N   1      28.118  53.595  37.573  0.00  0.00    -0.085 C 
HETATM   10  C   UNK N   1      28.810  53.306  38.707  0.00  0.00     0.008 C 
HETATM   11  C   UNK N   1      28.356  52.739  36.350  0.00  0.00     0.043 C 
HETATM   12  C   UNK N   1      26.308  53.240  40.344  0.00  0.00     0.021 C 
ENDROOT
BRANCH   1  13
HETATM   13  O   UNK N   1      29.168  53.031  40.978  0.00  0.00    -0.307 OA
BRANCH  13  14
HETATM   14  C   UNK N   1      30.456  52.734  41.278  0.00  0.00     0.294 C 
HETATM   15  O   UNK N   1      31.069  51.892  40.638  0.00  0.00    -0.259 OA
BRANCH  14  16
HETATM   16  C   UNK N   1      31.107  53.446  42.401  0.00  0.00     0.039 A 
HETATM   17  C   UNK N   1      31.809  52.725  43.381  0.00  0.00     0.020 A 
HETATM   18  C   UNK N   1      32.426  53.392  44.443  0.00  0.00     0.038 A 
HETATM   19  C   UNK N   1      32.352  54.786  44.543  0.00  0.00     0.068 A 
HETATM   20  C   UNK N   1      31.647  55.509  43.559  0.00  0.00     0.038 A 
HETATM   21  C   UNK N   1      31.031  54.844  42.499  0.00  0.00     0.020 A 
BRANCH  19  22
HETATM   22  O   UNK N   1      32.966  55.395  45.590  0.00  0.00    -0.356 OA
HETATM   23  C   UNK N   1      34.161  56.081  45.510  0.00  0.00     0.210 C 
ENDBRANCH  19  22
ENDBRANCH  14  16
ENDBRANCH  13  14
ENDBRANCH   1  13
BRANCH   3  24
HETATM   24  O   UNK N   1      25.485  55.938  39.947  0.00  0.00    -0.389 OA
HETATM   25  H   UNK N   1      25.088  56.048  39.045  0.00  0.00     0.210 HD
ENDBRANCH   3  24
BRANCH   4  26
HETATM   26  C   UNK N   1      26.870  58.274  40.808  0.00  0.00    -0.016 C 
HETATM   27  C   UNK N   1      26.750  58.696  42.288  0.00  0.00     0.010 C 
HETATM   28  C   UNK N   1      27.594  59.405  40.062  0.00  0.00     0.010 C 
ENDBRANCH   4  26
TORSDOF 6
ENDMDL
