MODEL 1
REMARK VINA RESULT:      -6.1      0.000      0.000
REMARK  2 active torsions:
REMARK  status: ('A' for Active; 'I' for Inactive)
REMARK    1  A    between atoms: C_5  and  C_7 
REMARK    2  A    between atoms: C_7  and  O_27 
ROOT
HETATM    1  C   UNK N   1      27.015  56.307  41.169  0.00  0.00     0.185 C 
HETATM    2  O   UNK N   1      27.990  56.518  42.209  0.00  0.00    -0.348 OA
HETATM    3  C   UNK N   1      29.039  55.550  42.314  0.00  0.00     0.127 C 
HETATM    4  C   UNK N   1      29.466  55.069  40.913  0.00  0.00     0.065 C 
HETATM    5  C   UNK N   1      28.311  54.351  40.170  0.00  0.00     0.140 C 
HETATM    6  O   UNK N   1      28.349  52.973  40.324  0.00  0.00    -0.312 OA
HETATM    7  C   UNK N   1      29.400  52.175  40.000  0.00  0.00     0.283 C 
HETATM    8  O   UNK N   1      30.355  52.626  39.386  0.00  0.00    -0.260 OA
HETATM    9  C   UNK N   1      29.364  50.762  40.440  0.00  0.00     0.084 C 
HETATM   10  C   UNK N   1      30.434  50.005  40.803  0.00  0.00    -0.078 C 
HETATM   11  C   UNK N   1      31.874  50.519  40.852  0.00  0.00     0.038 C 
HETATM   12  C   UNK N   1      32.363  50.715  42.302  0.00  0.00     0.031 C 
HETATM   13  C   UNK N   1      31.572  51.810  42.979  0.00  0.00    -0.030 C 
HETATM   14  C   UNK N   1      32.150  52.930  43.460  0.00  0.00    -0.026 C 
HETATM   15  C   UNK N   1      31.307  54.039  44.054  0.00  0.00     0.004 C 
HETATM   16  C   UNK N   1      31.496  55.334  43.218  0.00  0.00     0.010 C 
HETATM   17  C   UNK N   1      30.225  56.211  43.084  0.00  0.00     0.033 C 
HETATM   18  C   UNK N   1      31.673  54.274  45.525  0.00  0.00     0.014 C 
HETATM   19  C   UNK N   1      30.185  48.585  41.258  0.00  0.00     0.043 C 
HETATM   20  C   UNK N   1      26.958  54.826  40.722  0.00  0.00     0.103 C 
ENDROOT
BRANCH   1  21
HETATM   21  C   UNK N   1      25.629  56.723  41.741  0.00  0.00     0.157 C 
HETATM   22  N   UNK N   1      25.638  56.805  43.175  0.00  0.00    -0.341 N 
HETATM   23  C   UNK N   1      24.867  57.774  43.684  0.00  0.00     0.280 C 
HETATM   24  H   UNK N   1      26.114  56.112  43.776  0.00  0.00     0.163 HD
HETATM   25  S   UNK N   1      23.974  58.763  42.499  0.00  0.00    -0.067 SA
HETATM   26  O   UNK N   1      24.750  57.937  44.887  0.00  0.00    -0.260 OA
HETATM   27  C   UNK N   1      25.147  58.111  41.258  0.00  0.00     0.114 C 
ENDBRANCH   1  21
BRANCH   1  28
HETATM   28  O   UNK N   1      27.334  57.094  40.045  0.00  0.00    -0.363 OA
HETATM   29  H   UNK N   1      26.580  57.032  39.406  0.00  0.00     0.213 HD
ENDBRANCH   1  28
TORSDOF 2
ENDMDL
MODEL 2
REMARK VINA RESULT:      -5.6      1.661      2.126
REMARK  2 active torsions:
REMARK  status: ('A' for Active; 'I' for Inactive)
REMARK    1  A    between atoms: C_5  and  C_7 
REMARK    2  A    between atoms: C_7  and  O_27 
ROOT
HETATM    1  C   UNK N   1      27.742  54.594  40.187  0.00  0.00     0.185 C 
HETATM    2  O   UNK N   1      28.364  55.289  41.286  0.00  0.00    -0.348 OA
HETATM    3  C   UNK N   1      29.529  54.683  41.854  0.00  0.00     0.127 C 
HETATM    4  C   UNK N   1      30.381  54.022  40.752  0.00  0.00     0.065 C 
HETATM    5  C   UNK N   1      29.619  52.873  40.043  0.00  0.00     0.140 C 
HETATM    6  O   UNK N   1      29.899  51.628  40.585  0.00  0.00    -0.312 OA
HETATM    7  C   UNK N   1      31.139  51.083  40.701  0.00  0.00     0.283 C 
HETATM    8  O   UNK N   1      32.103  51.616  40.173  0.00  0.00    -0.260 OA
HETATM    9  C   UNK N   1      31.286  49.852  41.509  0.00  0.00     0.084 C 
HETATM   10  C   UNK N   1      32.364  49.509  42.264  0.00  0.00    -0.078 C 
HETATM   11  C   UNK N   1      33.609  50.381  42.431  0.00  0.00     0.038 C 
HETATM   12  C   UNK N   1      33.672  51.027  43.831  0.00  0.00     0.031 C 
HETATM   13  C   UNK N   1      32.529  52.000  44.011  0.00  0.00    -0.030 C 
HETATM   14  C   UNK N   1      32.727  53.312  44.253  0.00  0.00    -0.026 C 
HETATM   15  C   UNK N   1      31.553  54.266  44.340  0.00  0.00     0.004 C 
HETATM   16  C   UNK N   1      31.674  55.337  43.222  0.00  0.00     0.010 C 
HETATM   17  C   UNK N   1      30.325  55.792  42.611  0.00  0.00     0.033 C 
HETATM   18  C   UNK N   1      31.486  54.921  45.726  0.00  0.00     0.014 C 
HETATM   19  C   UNK N   1      32.306  48.218  43.049  0.00  0.00     0.043 C 
HETATM   20  C   UNK N   1      28.104  53.089  40.176  0.00  0.00     0.103 C 
ENDROOT
BRANCH   1  21
HETATM   21  C   UNK N   1      26.203  54.750  40.350  0.00  0.00     0.157 C 
HETATM   22  N   UNK N   1      25.856  55.489  41.532  0.00  0.00    -0.341 N 
HETATM   23  C   UNK N   1      24.776  56.271  41.405  0.00  0.00     0.280 C 
HETATM   24  H   UNK N   1      26.331  55.355  42.439  0.00  0.00     0.163 HD
HETATM   25  S   UNK N   1      23.974  56.241  39.813  0.00  0.00    -0.067 SA
HETATM   26  O   UNK N   1      24.346  56.927  42.338  0.00  0.00    -0.260 OA
HETATM   27  C   UNK N   1      25.526  55.509  39.184  0.00  0.00     0.114 C 
ENDBRANCH   1  21
BRANCH   1  28
HETATM   28  O   UNK N   1      28.162  55.157  38.966  0.00  0.00    -0.363 OA
HETATM   29  H   UNK N   1      27.356  55.327  38.416  0.00  0.00     0.213 HD
ENDBRANCH   1  28
TORSDOF 2
ENDMDL
MODEL 3
REMARK VINA RESULT:      -5.5     20.681     23.267
REMARK  2 active torsions:
REMARK  status: ('A' for Active; 'I' for Inactive)
REMARK    1  A    between atoms: C_5  and  C_7 
REMARK    2  A    between atoms: C_7  and  O_27 
ROOT
HETATM    1  C   UNK N   1      35.118  45.353  63.906  0.00  0.00     0.185 C 
HETATM    2  O   UNK N   1      33.915  46.147  63.926  0.00  0.00    -0.348 OA
HETATM    3  C   UNK N   1      32.897  45.797  62.982  0.00  0.00     0.127 C 
HETATM    4  C   UNK N   1      32.835  44.266  62.804  0.00  0.00     0.065 C 
HETATM    5  C   UNK N   1      34.154  43.697  62.224  0.00  0.00     0.140 C 
HETATM    6  O   UNK N   1      34.116  43.555  60.844  0.00  0.00    -0.312 OA
HETATM    7  C   UNK N   1      33.196  42.831  60.154  0.00  0.00     0.283 C 
HETATM    8  O   UNK N   1      32.405  42.109  60.743  0.00  0.00    -0.260 OA
HETATM    9  C   UNK N   1      33.161  42.973  58.681  0.00  0.00     0.084 C 
HETATM   10  C   UNK N   1      32.055  42.905  57.892  0.00  0.00    -0.078 C 
HETATM   11  C   UNK N   1      30.634  42.706  58.420  0.00  0.00     0.038 C 
HETATM   12  C   UNK N   1      29.803  44.004  58.330  0.00  0.00     0.031 C 
HETATM   13  C   UNK N   1      30.378  45.059  59.246  0.00  0.00    -0.030 C 
HETATM   14  C   UNK N   1      29.671  45.602  60.259  0.00  0.00    -0.026 C 
HETATM   15  C   UNK N   1      30.317  46.594  61.205  0.00  0.00     0.004 C 
HETATM   16  C   UNK N   1      30.301  46.016  62.647  0.00  0.00     0.010 C 
HETATM   17  C   UNK N   1      31.543  46.374  63.502  0.00  0.00     0.033 C 
HETATM   18  C   UNK N   1      29.600  47.948  61.146  0.00  0.00     0.014 C 
HETATM   19  C   UNK N   1      32.224  43.110  56.404  0.00  0.00     0.043 C 
HETATM   20  C   UNK N   1      35.319  44.644  62.545  0.00  0.00     0.103 C 
ENDROOT
BRANCH   1  21
HETATM   21  C   UNK N   1      36.313  46.315  64.164  0.00  0.00     0.157 C 
HETATM   22  N   UNK N   1      37.489  45.613  64.597  0.00  0.00    -0.341 N 
HETATM   23  C   UNK N   1      38.643  46.132  64.157  0.00  0.00     0.280 C 
HETATM   24  H   UNK N   1      37.463  44.836  65.276  0.00  0.00     0.163 HD
HETATM   25  S   UNK N   1      38.505  47.587  63.136  0.00  0.00    -0.067 SA
HETATM   26  O   UNK N   1      39.721  45.661  64.475  0.00  0.00    -0.260 OA
HETATM   27  C   UNK N   1      36.753  47.113  62.914  0.00  0.00     0.114 C 
ENDBRANCH   1  21
BRANCH   1  28
HETATM   28  O   UNK N   1      35.059  44.369  64.911  0.00  0.00    -0.363 OA
HETATM   29  H   UNK N   1      35.944  43.924  64.954  0.00  0.00     0.213 HD
ENDBRANCH   1  28
TORSDOF 2
ENDMDL
MODEL 4
REMARK VINA RESULT:      -5.4      3.651      7.583
REMARK  2 active torsions:
REMARK  status: ('A' for Active; 'I' for Inactive)
REMARK    1  A    between atoms: C_5  and  C_7 
REMARK    2  A    between atoms: C_7  and  O_27 
ROOT
HETATM    1  C   UNK N   1      31.567  54.361  42.929  0.00  0.00     0.185 C 
HETATM    2  O   UNK N   1      31.575  53.929  41.554  0.00  0.00    -0.348 OA
HETATM    3  C   UNK N   1      30.605  54.525  40.686  0.00  0.00     0.127 C 
HETATM    4  C   UNK N   1      30.403  56.010  41.050  0.00  0.00     0.065 C 
HETATM    5  C   UNK N   1      29.840  56.183  42.484  0.00  0.00     0.140 C 
HETATM    6  O   UNK N   1      28.458  56.301  42.508  0.00  0.00    -0.312 OA
HETATM    7  C   UNK N   1      27.738  57.235  41.833  0.00  0.00     0.283 C 
HETATM    8  O   UNK N   1      28.299  58.159  41.262  0.00  0.00    -0.260 OA
HETATM    9  C   UNK N   1      26.267  57.079  41.782  0.00  0.00     0.084 C 
HETATM   10  C   UNK N   1      25.455  57.431  40.750  0.00  0.00    -0.078 C 
HETATM   11  C   UNK N   1      25.950  58.023  39.430  0.00  0.00     0.038 C 
HETATM   12  C   UNK N   1      25.864  57.003  38.276  0.00  0.00     0.031 C 
HETATM   13  C   UNK N   1      26.808  55.849  38.525  0.00  0.00    -0.030 C 
HETATM   14  C   UNK N   1      27.815  55.543  37.681  0.00  0.00    -0.026 C 
HETATM   15  C   UNK N   1      28.789  54.432  38.014  0.00  0.00     0.004 C 
HETATM   16  C   UNK N   1      30.221  55.020  38.135  0.00  0.00     0.010 C 
HETATM   17  C   UNK N   1      31.107  54.354  39.218  0.00  0.00     0.033 C 
HETATM   18  C   UNK N   1      28.737  53.325  36.953  0.00  0.00     0.014 C 
HETATM   19  C   UNK N   1      23.974  57.156  40.879  0.00  0.00     0.043 C 
HETATM   20  C   UNK N   1      30.200  54.959  43.339  0.00  0.00     0.103 C 
ENDROOT
BRANCH   1  21
HETATM   21  C   UNK N   1      31.865  53.113  43.809  0.00  0.00     0.157 C 
HETATM   22  N   UNK N   1      31.875  51.899  43.041  0.00  0.00    -0.341 N 
HETATM   23  C   UNK N   1      32.766  50.986  43.449  0.00  0.00     0.280 C 
HETATM   24  H   UNK N   1      31.185  51.695  42.300  0.00  0.00     0.163 HD
HETATM   25  S   UNK N   1      33.755  51.440  44.861  0.00  0.00    -0.067 SA
HETATM   26  O   UNK N   1      32.860  49.896  42.913  0.00  0.00    -0.260 OA
HETATM   27  C   UNK N   1      33.242  53.159  44.511  0.00  0.00     0.114 C 
ENDBRANCH   1  21
BRANCH   1  28
HETATM   28  O   UNK N   1      32.556  55.344  43.128  0.00  0.00    -0.363 OA
HETATM   29  H   UNK N   1      33.210  54.990  43.783  0.00  0.00     0.213 HD
ENDBRANCH   1  28
TORSDOF 2
ENDMDL
MODEL 5
REMARK VINA RESULT:      -5.3     20.335     23.422
REMARK  2 active torsions:
REMARK  status: ('A' for Active; 'I' for Inactive)
REMARK    1  A    between atoms: C_5  and  C_7 
REMARK    2  A    between atoms: C_7  and  O_27 
ROOT
HETATM    1  C   UNK N   1      32.352  43.603  61.840  0.00  0.00     0.185 C 
HETATM    2  O   UNK N   1      33.772  43.837  61.751  0.00  0.00    -0.348 OA
HETATM    3  C   UNK N   1      34.273  45.008  62.405  0.00  0.00     0.127 C 
HETATM    4  C   UNK N   1      33.509  45.255  63.721  0.00  0.00     0.065 C 
HETATM    5  C   UNK N   1      32.004  45.529  63.475  0.00  0.00     0.140 C 
HETATM    6  O   UNK N   1      31.709  46.882  63.403  0.00  0.00    -0.312 OA
HETATM    7  C   UNK N   1      31.985  47.798  64.368  0.00  0.00     0.283 C 
HETATM    8  O   UNK N   1      32.386  47.442  65.466  0.00  0.00    -0.260 OA
HETATM    9  C   UNK N   1      31.816  49.231  64.038  0.00  0.00     0.084 C 
HETATM   10  C   UNK N   1      32.564  50.261  64.516  0.00  0.00    -0.078 C 
HETATM   11  C   UNK N   1      33.752  50.093  65.464  0.00  0.00     0.038 C 
HETATM   12  C   UNK N   1      35.097  50.326  64.744  0.00  0.00     0.031 C 
HETATM   13  C   UNK N   1      35.323  49.259  63.697  0.00  0.00    -0.030 C 
HETATM   14  C   UNK N   1      36.379  48.422  63.733  0.00  0.00    -0.026 C 
HETATM   15  C   UNK N   1      36.520  47.312  62.711  0.00  0.00     0.004 C 
HETATM   16  C   UNK N   1      36.502  45.939  63.436  0.00  0.00     0.010 C 
HETATM   17  C   UNK N   1      35.800  44.801  62.652  0.00  0.00     0.033 C 
HETATM   18  C   UNK N   1      37.804  47.486  61.891  0.00  0.00     0.014 C 
HETATM   19  C   UNK N   1      32.254  51.658  64.028  0.00  0.00     0.043 C 
HETATM   20  C   UNK N   1      31.569  44.904  62.141  0.00  0.00     0.103 C 
ENDROOT
BRANCH   1  21
HETATM   21  C   UNK N   1      31.889  43.032  60.469  0.00  0.00     0.157 C 
HETATM   22  N   UNK N   1      30.765  43.750  59.936  0.00  0.00    -0.341 N 
HETATM   23  C   UNK N   1      30.759  43.869  58.601  0.00  0.00     0.280 C 
HETATM   24  H   UNK N   1      29.968  44.060  60.515  0.00  0.00     0.163 HD
HETATM   25  S   UNK N   1      32.129  43.113  57.746  0.00  0.00    -0.067 SA
HETATM   26  O   UNK N   1      29.848  44.422  58.010  0.00  0.00    -0.260 OA
HETATM   27  C   UNK N   1      32.973  43.100  59.367  0.00  0.00     0.114 C 
ENDBRANCH   1  21
BRANCH   1  28
HETATM   28  O   UNK N   1      32.082  42.679  62.868  0.00  0.00    -0.363 OA
HETATM   29  H   UNK N   1      31.100  42.643  62.996  0.00  0.00     0.213 HD
ENDBRANCH   1  28
TORSDOF 2
ENDMDL
MODEL 6
REMARK VINA RESULT:      -5.2     20.144     23.001
REMARK  2 active torsions:
REMARK  status: ('A' for Active; 'I' for Inactive)
REMARK    1  A    between atoms: C_5  and  C_7 
REMARK    2  A    between atoms: C_7  and  O_27 
ROOT
HETATM    1  C   UNK N   1      30.596  48.724  63.983  0.00  0.00     0.185 C 
HETATM    2  O   UNK N   1      30.536  47.341  63.582  0.00  0.00    -0.348 OA
HETATM    3  C   UNK N   1      31.783  46.646  63.477  0.00  0.00     0.127 C 
HETATM    4  C   UNK N   1      32.749  47.108  64.587  0.00  0.00     0.065 C 
HETATM    5  C   UNK N   1      33.099  48.612  64.460  0.00  0.00     0.140 C 
HETATM    6  O   UNK N   1      34.277  48.832  63.761  0.00  0.00    -0.312 OA
HETATM    7  C   UNK N   1      35.490  48.310  64.083  0.00  0.00     0.283 C 
HETATM    8  O   UNK N   1      35.649  47.715  65.138  0.00  0.00    -0.260 OA
HETATM    9  C   UNK N   1      36.592  48.454  63.106  0.00  0.00     0.084 C 
HETATM   10  C   UNK N   1      37.595  47.562  62.886  0.00  0.00    -0.078 C 
HETATM   11  C   UNK N   1      37.723  46.218  63.604  0.00  0.00     0.038 C 
HETATM   12  C   UNK N   1      37.368  45.037  62.676  0.00  0.00     0.031 C 
HETATM   13  C   UNK N   1      35.909  45.095  62.288  0.00  0.00    -0.030 C 
HETATM   14  C   UNK N   1      35.040  44.107  62.585  0.00  0.00    -0.026 C 
HETATM   15  C   UNK N   1      33.569  44.247  62.252  0.00  0.00     0.004 C 
HETATM   16  C   UNK N   1      32.737  44.200  63.562  0.00  0.00     0.010 C 
HETATM   17  C   UNK N   1      31.487  45.116  63.569  0.00  0.00     0.033 C 
HETATM   18  C   UNK N   1      33.124  43.149  61.277  0.00  0.00     0.014 C 
HETATM   19  C   UNK N   1      38.612  47.879  61.814  0.00  0.00     0.043 C 
HETATM   20  C   UNK N   1      31.985  49.348  63.700  0.00  0.00     0.103 C 
ENDROOT
BRANCH   1  21
HETATM   21  C   UNK N   1      29.515  49.491  63.170  0.00  0.00     0.157 C 
HETATM   22  N   UNK N   1      29.984  49.867  61.866  0.00  0.00    -0.341 N 
HETATM   23  C   UNK N   1      29.052  49.833  60.905  0.00  0.00     0.280 C 
HETATM   24  H   UNK N   1      30.933  50.236  61.693  0.00  0.00     0.163 HD
HETATM   25  S   UNK N   1      27.418  49.342  61.421  0.00  0.00    -0.067 SA
HETATM   26  O   UNK N   1      29.300  50.161  59.757  0.00  0.00    -0.260 OA
HETATM   27  C   UNK N   1      28.227  48.672  62.917  0.00  0.00     0.114 C 
ENDBRANCH   1  21
BRANCH   1  28
HETATM   28  O   UNK N   1      30.337  48.835  65.363  0.00  0.00    -0.363 OA
HETATM   29  H   UNK N   1      30.627  47.991  65.796  0.00  0.00     0.213 HD
ENDBRANCH   1  28
TORSDOF 2
ENDMDL
MODEL 7
REMARK VINA RESULT:      -5.2     16.293     18.928
REMARK  2 active torsions:
REMARK  status: ('A' for Active; 'I' for Inactive)
REMARK    1  A    between atoms: C_5  and  C_7 
REMARK    2  A    between atoms: C_7  and  O_27 
ROOT
HETATM    1  C   UNK N   1      27.611  52.720  60.878  0.00  0.00     0.185 C 
HETATM    2  O   UNK N   1      28.051  52.546  59.516  0.00  0.00    -0.348 OA
HETATM    3  C   UNK N   1      28.417  51.219  59.122  0.00  0.00     0.127 C 
HETATM    4  C   UNK N   1      27.490  50.186  59.794  0.00  0.00     0.065 C 
HETATM    5  C   UNK N   1      27.619  50.212  61.339  0.00  0.00     0.140 C 
HETATM    6  O   UNK N   1      28.517  49.270  61.818  0.00  0.00    -0.312 OA
HETATM    7  C   UNK N   1      28.451  47.932  61.586  0.00  0.00     0.283 C 
HETATM    8  O   UNK N   1      27.470  47.444  61.046  0.00  0.00    -0.260 OA
HETATM    9  C   UNK N   1      29.611  47.099  61.975  0.00  0.00     0.084 C 
HETATM   10  C   UNK N   1      30.052  45.984  61.334  0.00  0.00    -0.078 C 
HETATM   11  C   UNK N   1      29.427  45.424  60.056  0.00  0.00     0.038 C 
HETATM   12  C   UNK N   1      30.319  45.677  58.823  0.00  0.00     0.031 C 
HETATM   13  C   UNK N   1      30.424  47.159  58.547  0.00  0.00    -0.030 C 
HETATM   14  C   UNK N   1      30.010  47.711  57.388  0.00  0.00    -0.026 C 
HETATM   15  C   UNK N   1      30.055  49.212  57.189  0.00  0.00     0.004 C 
HETATM   16  C   UNK N   1      28.614  49.745  56.957  0.00  0.00     0.010 C 
HETATM   17  C   UNK N   1      28.334  51.142  57.565  0.00  0.00     0.033 C 
HETATM   18  C   UNK N   1      30.973  49.579  56.016  0.00  0.00     0.014 C 
HETATM   19  C   UNK N   1      31.282  45.289  61.871  0.00  0.00     0.043 C 
HETATM   20  C   UNK N   1      28.124  51.587  61.799  0.00  0.00     0.103 C 
ENDROOT
BRANCH   1  21
HETATM   21  C   UNK N   1      28.175  54.082  61.377  0.00  0.00     0.157 C 
HETATM   22  N   UNK N   1      29.471  54.364  60.828  0.00  0.00    -0.341 N 
HETATM   23  C   UNK N   1      29.700  55.659  60.572  0.00  0.00     0.280 C 
HETATM   24  H   UNK N   1      30.212  53.650  60.733  0.00  0.00     0.163 HD
HETATM   25  S   UNK N   1      28.369  56.778  60.965  0.00  0.00    -0.067 SA
HETATM   26  O   UNK N   1      30.771  56.048  60.138  0.00  0.00    -0.260 OA
HETATM   27  C   UNK N   1      27.299  55.297  60.993  0.00  0.00     0.114 C 
ENDBRANCH   1  21
BRANCH   1  28
HETATM   28  O   UNK N   1      26.204  52.727  60.930  0.00  0.00    -0.363 OA
HETATM   29  H   UNK N   1      25.889  51.800  60.775  0.00  0.00     0.213 HD
ENDBRANCH   1  28
TORSDOF 2
ENDMDL
MODEL 8
REMARK VINA RESULT:      -5.2     17.898     20.550
REMARK  2 active torsions:
REMARK  status: ('A' for Active; 'I' for Inactive)
REMARK    1  A    between atoms: C_5  and  C_7 
REMARK    2  A    between atoms: C_7  and  O_27 
ROOT
HETATM    1  C   UNK N   1      29.110  47.032  58.298  0.00  0.00     0.185 C 
HETATM    2  O   UNK N   1      29.837  45.852  57.902  0.00  0.00    -0.348 OA
HETATM    3  C   UNK N   1      30.622  45.211  58.913  0.00  0.00     0.127 C 
HETATM    4  C   UNK N   1      29.901  45.278  60.274  0.00  0.00     0.065 C 
HETATM    5  C   UNK N   1      29.713  46.738  60.758  0.00  0.00     0.140 C 
HETATM    6  O   UNK N   1      30.723  47.154  61.613  0.00  0.00    -0.312 OA
HETATM    7  C   UNK N   1      31.071  46.540  62.774  0.00  0.00     0.283 C 
HETATM    8  O   UNK N   1      30.386  45.635  63.228  0.00  0.00    -0.260 OA
HETATM    9  C   UNK N   1      32.316  46.976  63.447  0.00  0.00     0.084 C 
HETATM   10  C   UNK N   1      33.161  46.188  64.163  0.00  0.00    -0.078 C 
HETATM   11  C   UNK N   1      32.976  44.683  64.360  0.00  0.00     0.038 C 
HETATM   12  C   UNK N   1      33.988  43.868  63.528  0.00  0.00     0.031 C 
HETATM   13  C   UNK N   1      33.735  44.068  62.051  0.00  0.00    -0.030 C 
HETATM   14  C   UNK N   1      33.421  43.049  61.226  0.00  0.00    -0.026 C 
HETATM   15  C   UNK N   1      33.091  43.308  59.770  0.00  0.00     0.004 C 
HETATM   16  C   UNK N   1      31.634  42.855  59.482  0.00  0.00     0.010 C 
HETATM   17  C   UNK N   1      30.869  43.737  58.463  0.00  0.00     0.033 C 
HETATM   18  C   UNK N   1      34.085  42.588  58.850  0.00  0.00     0.014 C 
HETATM   19  C   UNK N   1      34.405  46.819  64.747  0.00  0.00     0.043 C 
HETATM   20  C   UNK N   1      29.723  47.694  59.556  0.00  0.00     0.103 C 
ENDROOT
BRANCH   1  21
HETATM   21  C   UNK N   1      29.171  48.035  57.110  0.00  0.00     0.157 C 
HETATM   22  N   UNK N   1      27.963  48.803  56.989  0.00  0.00    -0.341 N 
HETATM   23  C   UNK N   1      28.143  50.065  56.578  0.00  0.00     0.280 C 
HETATM   24  H   UNK N   1      27.021  48.395  57.104  0.00  0.00     0.163 HD
HETATM   25  S   UNK N   1      29.829  50.547  56.253  0.00  0.00    -0.067 SA
HETATM   26  O   UNK N   1      27.204  50.822  56.397  0.00  0.00    -0.260 OA
HETATM   27  C   UNK N   1      30.305  49.079  57.232  0.00  0.00     0.114 C 
ENDBRANCH   1  21
BRANCH   1  28
HETATM   28  O   UNK N   1      27.772  46.697  58.584  0.00  0.00    -0.363 OA
HETATM   29  H   UNK N   1      27.486  47.229  59.369  0.00  0.00     0.213 HD
ENDBRANCH   1  28
TORSDOF 2
ENDMDL
MODEL 9
REMARK VINA RESULT:      -5.1     24.177     26.308
REMARK  2 active torsions:
REMARK  status: ('A' for Active; 'I' for Inactive)
REMARK    1  A    between atoms: C_5  and  C_7 
REMARK    2  A    between atoms: C_7  and  O_27 
ROOT
HETATM    1  C   UNK N   1      46.647  53.108  60.862  0.00  0.00     0.185 C 
HETATM    2  O   UNK N   1      47.758  52.310  60.406  0.00  0.00    -0.348 OA
HETATM    3  C   UNK N   1      48.635  52.916  59.450  0.00  0.00     0.127 C 
HETATM    4  C   UNK N   1      48.809  54.417  59.758  0.00  0.00     0.065 C 
HETATM    5  C   UNK N   1      47.471  55.190  59.643  0.00  0.00     0.140 C 
HETATM    6  O   UNK N   1      47.295  55.775  58.398  0.00  0.00    -0.312 OA
HETATM    7  C   UNK N   1      48.152  56.653  57.814  0.00  0.00     0.283 C 
HETATM    8  O   UNK N   1      49.092  57.115  58.444  0.00  0.00    -0.260 OA
HETATM    9  C   UNK N   1      47.932  57.002  56.393  0.00  0.00     0.084 C 
HETATM   10  C   UNK N   1      48.894  57.286  55.475  0.00  0.00    -0.078 C 
HETATM   11  C   UNK N   1      50.395  57.252  55.765  0.00  0.00     0.038 C 
HETATM   12  C   UNK N   1      51.076  56.028  55.117  0.00  0.00     0.031 C 
HETATM   13  C   UNK N   1      50.564  54.751  55.741  0.00  0.00    -0.030 C 
HETATM   14  C   UNK N   1      51.374  53.882  56.381  0.00  0.00    -0.026 C 
HETATM   15  C   UNK N   1      50.803  52.658  57.067  0.00  0.00     0.004 C 
HETATM   16  C   UNK N   1      51.109  52.729  58.587  0.00  0.00     0.010 C 
HETATM   17  C   UNK N   1      49.997  52.154  59.500  0.00  0.00     0.033 C 
HETATM   18  C   UNK N   1      51.372  51.374  56.450  0.00  0.00     0.014 C 
HETATM   19  C   UNK N   1      48.465  57.587  54.057  0.00  0.00     0.043 C 
HETATM   20  C   UNK N   1      46.291  54.231  59.858  0.00  0.00     0.103 C 
ENDROOT
BRANCH   1  21
HETATM   21  C   UNK N   1      45.427  52.156  61.019  0.00  0.00     0.157 C 
HETATM   22  N   UNK N   1      45.745  50.803  60.654  0.00  0.00    -0.341 N 
HETATM   23  C   UNK N   1      45.125  49.867  61.383  0.00  0.00     0.280 C 
HETATM   24  H   UNK N   1      46.321  50.562  59.832  0.00  0.00     0.163 HD
HETATM   25  S   UNK N   1      44.023  50.468  62.650  0.00  0.00    -0.067 SA
HETATM   26  O   UNK N   1      45.273  48.677  61.161  0.00  0.00    -0.260 OA
HETATM   27  C   UNK N   1      44.886  52.068  62.466  0.00  0.00     0.114 C 
ENDBRANCH   1  21
BRANCH   1  28
HETATM   28  O   UNK N   1      46.961  53.705  62.098  0.00  0.00    -0.363 OA
HETATM   29  H   UNK N   1      47.045  54.682  61.952  0.00  0.00     0.213 HD
ENDBRANCH   1  28
TORSDOF 2
ENDMDL
