MODEL 1
REMARK VINA RESULT:      -7.1      0.000      0.000
REMARK  12 active torsions:
REMARK  status: ('A' for Active; 'I' for Inactive)
REMARK    1  A    between atoms: C_1  and  N_2 
REMARK    2  A    between atoms: O_3  and  C_21 
REMARK    3  A    between atoms: N_5  and  C_20 
REMARK    4  A    between atoms: N_5  and  C_21 
REMARK    5  A    between atoms: N_5  and  C_22 
REMARK    6  A    between atoms: O_6  and  C_30 
REMARK    7  A    between atoms: C_11  and  C_14 
REMARK    8  A    between atoms: C_17  and  C_20 
REMARK    9  A    between atoms: C_21  and  C_32 
REMARK   10  A    between atoms: C_26  and  C_28 
REMARK   11  A    between atoms: C_28  and  C_29 
REMARK   12  A    between atoms: C_29  and  C_30 
ROOT
HETATM    1  N   FEX N   1      31.132  42.735  58.333  0.00  0.00    -0.350 N 
ENDROOT
BRANCH   1   2
HETATM    2  C   FEX N   1      31.542  41.890  59.436  0.00  0.00     0.164 C 
BRANCH   2   3
HETATM    3  C   FEX N   1      32.605  42.579  60.248  0.00  0.00    -0.040 A 
HETATM    4  C   FEX N   1      33.899  42.702  59.731  0.00  0.00     0.009 A 
HETATM    5  C   FEX N   1      34.897  43.346  60.457  0.00  0.00     0.013 A 
HETATM    6  C   FEX N   1      34.620  43.897  61.715  0.00  0.00    -0.026 A 
HETATM    7  C   FEX N   1      33.317  43.779  62.236  0.00  0.00     0.013 A 
HETATM    8  C   FEX N   1      32.315  43.120  61.506  0.00  0.00     0.009 A 
BRANCH   6   9
HETATM    9  C   FEX N   1      35.693  44.595  62.465  0.00  0.00    -0.026 A 
HETATM   10  C   FEX N   1      35.499  44.998  63.795  0.00  0.00     0.014 A 
HETATM   11  C   FEX N   1      36.517  45.659  64.491  0.00  0.00     0.030 A 
HETATM   12  C   FEX N   1      37.750  45.929  63.871  0.00  0.00     0.029 A 
HETATM   13  C   FEX N   1      37.941  45.525  62.541  0.00  0.00     0.030 A 
HETATM   14  C   FEX N   1      36.925  44.867  61.847  0.00  0.00     0.014 A 
BRANCH  12  15
HETATM   15  N   FEX N   1      38.792  46.599  64.580  0.00  0.00    -0.390 N 
HETATM   16  C   FEX N   1      38.779  48.033  64.735  0.00  0.00     0.149 C 
HETATM   17  C   FEX N   1      39.887  45.860  65.158  0.00  0.00     0.149 C 
ENDBRANCH  12  15
ENDBRANCH   6   9
ENDBRANCH   2   3
ENDBRANCH   1   2
BRANCH   1  18
HETATM   18  C   FEX N   1      31.641  44.108  58.316  0.00  0.00     0.224 C 
BRANCH  18  19
HETATM   19  O   FEX N   1      32.414  44.343  57.179  0.00  0.00    -0.376 OA
HETATM   20  H   FEX N   1      31.965  44.989  56.611  0.00  0.00     0.212 HD
ENDBRANCH  18  19
BRANCH  18  21
HETATM   21  C   FEX N   1      30.668  45.272  58.525  0.00  0.00     0.034 C 
HETATM   22  C   FEX N   1      30.415  45.676  59.979  0.00  0.00     0.009 C 
HETATM   23  C   FEX N   1      29.397  46.822  60.096  0.00  0.00     0.001 C 
HETATM   24  C   FEX N   1      28.662  47.099  58.782  0.00  0.00     0.000 C 
HETATM   25  C   FEX N   1      29.661  47.423  57.661  0.00  0.00     0.001 C 
HETATM   26  C   FEX N   1      30.869  46.470  57.605  0.00  0.00     0.009 C 
ENDBRANCH  18  21
ENDBRANCH   1  18
BRANCH   1  27
HETATM   27  C   FEX N   1      30.166  42.225  57.416  0.00  0.00     0.033 A 
HETATM   28  C   FEX N   1      29.118  41.422  57.889  0.00  0.00     0.029 A 
HETATM   29  C   FEX N   1      28.210  40.842  57.000  0.00  0.00     0.003 A 
HETATM   30  C   FEX N   1      28.386  40.999  55.626  0.00  0.00     0.007 A 
HETATM   31  C   FEX N   1      29.458  41.750  55.137  0.00  0.00    -0.056 A 
HETATM   32  C   FEX N   1      30.342  42.375  56.032  0.00  0.00     0.036 A 
BRANCH  31  33
HETATM   33  C   FEX N   1      29.707  41.787  53.668  0.00  0.00     0.048 C 
BRANCH  33  34
HETATM   34  C   FEX N   1      28.365  41.811  52.945  0.00  0.00     0.115 C 
BRANCH  34  35
HETATM   35  C   FEX N   1      28.112  43.125  52.283  0.00  0.00     0.258 C 
HETATM   36  O   FEX N   1      28.922  43.566  51.475  0.00  0.00    -0.265 OA
BRANCH  35  37
HETATM   37  O   FEX N   1      27.009  43.834  52.616  0.00  0.00    -0.326 OA
HETATM   38  C   FEX N   1      25.856  43.803  51.866  0.00  0.00     0.213 C 
ENDBRANCH  35  37
ENDBRANCH  34  35
ENDBRANCH  33  34
ENDBRANCH  31  33
ENDBRANCH   1  27
TORSDOF 12
ENDMDL
MODEL 2
REMARK VINA RESULT:      -7.0      1.682      2.446
REMARK  12 active torsions:
REMARK  status: ('A' for Active; 'I' for Inactive)
REMARK    1  A    between atoms: C_1  and  N_2 
REMARK    2  A    between atoms: O_3  and  C_21 
REMARK    3  A    between atoms: N_5  and  C_20 
REMARK    4  A    between atoms: N_5  and  C_21 
REMARK    5  A    between atoms: N_5  and  C_22 
REMARK    6  A    between atoms: O_6  and  C_30 
REMARK    7  A    between atoms: C_11  and  C_14 
REMARK    8  A    between atoms: C_17  and  C_20 
REMARK    9  A    between atoms: C_21  and  C_32 
REMARK   10  A    between atoms: C_26  and  C_28 
REMARK   11  A    between atoms: C_28  and  C_29 
REMARK   12  A    between atoms: C_29  and  C_30 
ROOT
HETATM    1  N   FEX N   1      29.575  42.307  57.877  0.00  0.00    -0.350 N 
ENDROOT
BRANCH   1   2
HETATM    2  C   FEX N   1      30.228  41.359  58.756  0.00  0.00     0.164 C 
BRANCH   2   3
HETATM    3  C   FEX N   1      31.350  42.031  59.500  0.00  0.00    -0.040 A 
HETATM    4  C   FEX N   1      31.317  42.091  60.897  0.00  0.00     0.009 A 
HETATM    5  C   FEX N   1      32.348  42.696  61.609  0.00  0.00     0.013 A 
HETATM    6  C   FEX N   1      33.448  43.247  60.938  0.00  0.00    -0.026 A 
HETATM    7  C   FEX N   1      33.487  43.185  59.532  0.00  0.00     0.013 A 
HETATM    8  C   FEX N   1      32.440  42.582  58.816  0.00  0.00     0.009 A 
BRANCH   6   9
HETATM    9  C   FEX N   1      34.546  43.873  61.715  0.00  0.00    -0.026 A 
HETATM   10  C   FEX N   1      35.766  44.201  61.106  0.00  0.00     0.014 A 
HETATM   11  C   FEX N   1      36.796  44.788  61.851  0.00  0.00     0.030 A 
HETATM   12  C   FEX N   1      36.624  45.059  63.220  0.00  0.00     0.029 A 
HETATM   13  C   FEX N   1      35.402  44.729  63.827  0.00  0.00     0.030 A 
HETATM   14  C   FEX N   1      34.377  44.143  63.084  0.00  0.00     0.014 A 
BRANCH  12  15
HETATM   15  N   FEX N   1      37.671  45.661  63.981  0.00  0.00    -0.390 N 
HETATM   16  C   FEX N   1      38.120  45.073  65.219  0.00  0.00     0.149 C 
HETATM   17  C   FEX N   1      38.306  46.877  63.534  0.00  0.00     0.149 C 
ENDBRANCH  12  15
ENDBRANCH   6   9
ENDBRANCH   2   3
ENDBRANCH   1   2
BRANCH   1  18
HETATM   18  C   FEX N   1      28.751  43.344  58.503  0.00  0.00     0.224 C 
BRANCH  18  19
HETATM   19  O   FEX N   1      28.237  42.907  59.724  0.00  0.00    -0.376 OA
HETATM   20  H   FEX N   1      27.641  43.583  60.084  0.00  0.00     0.212 HD
ENDBRANCH  18  19
BRANCH  18  21
HETATM   21  C   FEX N   1      29.316  44.759  58.660  0.00  0.00     0.034 C 
HETATM   22  C   FEX N   1      29.644  45.191  60.091  0.00  0.00     0.009 C 
HETATM   23  C   FEX N   1      30.164  46.636  60.157  0.00  0.00     0.001 C 
HETATM   24  C   FEX N   1      29.969  47.398  58.844  0.00  0.00     0.000 C 
HETATM   25  C   FEX N   1      30.659  46.665  57.683  0.00  0.00     0.001 C 
HETATM   26  C   FEX N   1      30.401  45.148  57.662  0.00  0.00     0.009 C 
ENDBRANCH  18  21
ENDBRANCH   1  18
BRANCH   1  27
HETATM   27  C   FEX N   1      29.667  42.095  56.470  0.00  0.00     0.033 A 
HETATM   28  C   FEX N   1      30.922  41.880  55.882  0.00  0.00     0.029 A 
HETATM   29  C   FEX N   1      31.045  41.754  54.496  0.00  0.00     0.003 A 
HETATM   30  C   FEX N   1      29.926  41.917  53.681  0.00  0.00     0.007 A 
HETATM   31  C   FEX N   1      28.677  42.188  54.249  0.00  0.00    -0.056 A 
HETATM   32  C   FEX N   1      28.544  42.264  55.645  0.00  0.00     0.036 A 
BRANCH  31  33
HETATM   33  C   FEX N   1      27.526  42.498  53.354  0.00  0.00     0.048 C 
BRANCH  33  34
HETATM   34  C   FEX N   1      27.320  41.326  52.401  0.00  0.00     0.115 C 
BRANCH  34  35
HETATM   35  C   FEX N   1      27.140  41.780  50.991  0.00  0.00     0.258 C 
HETATM   36  O   FEX N   1      27.368  42.946  50.692  0.00  0.00    -0.265 OA
BRANCH  35  37
HETATM   37  O   FEX N   1      26.686  40.904  50.064  0.00  0.00    -0.326 OA
HETATM   38  C   FEX N   1      25.606  41.174  49.257  0.00  0.00     0.213 C 
ENDBRANCH  35  37
ENDBRANCH  34  35
ENDBRANCH  33  34
ENDBRANCH  31  33
ENDBRANCH   1  27
TORSDOF 12
ENDMDL
MODEL 3
REMARK VINA RESULT:      -6.9      2.125      4.711
REMARK  12 active torsions:
REMARK  status: ('A' for Active; 'I' for Inactive)
REMARK    1  A    between atoms: C_1  and  N_2 
REMARK    2  A    between atoms: O_3  and  C_21 
REMARK    3  A    between atoms: N_5  and  C_20 
REMARK    4  A    between atoms: N_5  and  C_21 
REMARK    5  A    between atoms: N_5  and  C_22 
REMARK    6  A    between atoms: O_6  and  C_30 
REMARK    7  A    between atoms: C_11  and  C_14 
REMARK    8  A    between atoms: C_17  and  C_20 
REMARK    9  A    between atoms: C_21  and  C_32 
REMARK   10  A    between atoms: C_26  and  C_28 
REMARK   11  A    between atoms: C_28  and  C_29 
REMARK   12  A    between atoms: C_29  and  C_30 
ROOT
HETATM    1  N   FEX N   1      30.132  42.026  58.217  0.00  0.00    -0.350 N 
ENDROOT
BRANCH   1   2
HETATM    2  C   FEX N   1      30.232  41.566  59.587  0.00  0.00     0.164 C 
BRANCH   2   3
HETATM    3  C   FEX N   1      31.405  42.219  60.267  0.00  0.00    -0.040 A 
HETATM    4  C   FEX N   1      32.706  41.841  59.917  0.00  0.00     0.009 A 
HETATM    5  C   FEX N   1      33.808  42.439  60.522  0.00  0.00     0.013 A 
HETATM    6  C   FEX N   1      33.634  43.442  61.485  0.00  0.00    -0.026 A 
HETATM    7  C   FEX N   1      32.326  43.827  61.837  0.00  0.00     0.013 A 
HETATM    8  C   FEX N   1      31.217  43.215  61.231  0.00  0.00     0.009 A 
BRANCH   6   9
HETATM    9  C   FEX N   1      34.822  44.079  62.106  0.00  0.00    -0.026 A 
HETATM   10  C   FEX N   1      34.825  44.430  63.464  0.00  0.00     0.014 A 
HETATM   11  C   FEX N   1      35.949  45.034  64.038  0.00  0.00     0.030 A 
HETATM   12  C   FEX N   1      37.094  45.297  63.264  0.00  0.00     0.029 A 
HETATM   13  C   FEX N   1      37.087  44.945  61.906  0.00  0.00     0.030 A 
HETATM   14  C   FEX N   1      35.965  44.344  61.334  0.00  0.00     0.014 A 
BRANCH  12  15
HETATM   15  N   FEX N   1      38.244  45.910  63.848  0.00  0.00    -0.390 N 
HETATM   16  C   FEX N   1      38.476  47.327  63.716  0.00  0.00     0.149 C 
HETATM   17  C   FEX N   1      39.206  45.126  64.584  0.00  0.00     0.149 C 
ENDBRANCH  12  15
ENDBRANCH   6   9
ENDBRANCH   2   3
ENDBRANCH   1   2
BRANCH   1  18
HETATM   18  C   FEX N   1      29.982  41.007  57.177  0.00  0.00     0.224 C 
BRANCH  18  19
HETATM   19  O   FEX N   1      29.309  39.887  57.664  0.00  0.00    -0.376 OA
HETATM   20  H   FEX N   1      28.617  40.169  58.282  0.00  0.00     0.212 HD
ENDBRANCH  18  19
BRANCH  18  21
HETATM   21  C   FEX N   1      29.401  41.403  55.816  0.00  0.00     0.034 C 
HETATM   22  C   FEX N   1      30.399  41.462  54.657  0.00  0.00     0.009 C 
HETATM   23  C   FEX N   1      29.737  41.907  53.343  0.00  0.00     0.001 C 
HETATM   24  C   FEX N   1      28.324  42.458  53.546  0.00  0.00     0.000 C 
HETATM   25  C   FEX N   1      27.430  41.415  54.233  0.00  0.00     0.001 C 
HETATM   26  C   FEX N   1      28.094  40.718  55.435  0.00  0.00     0.009 C 
ENDBRANCH  18  21
ENDBRANCH   1  18
BRANCH   1  27
HETATM   27  C   FEX N   1      30.316  43.417  57.958  0.00  0.00     0.033 A 
HETATM   28  C   FEX N   1      31.556  43.876  57.491  0.00  0.00     0.029 A 
HETATM   29  C   FEX N   1      31.787  45.242  57.311  0.00  0.00     0.003 A 
HETATM   30  C   FEX N   1      30.805  46.165  57.669  0.00  0.00     0.007 A 
HETATM   31  C   FEX N   1      29.584  45.726  58.189  0.00  0.00    -0.056 A 
HETATM   32  C   FEX N   1      29.334  44.350  58.321  0.00  0.00     0.036 A 
BRANCH  31  33
HETATM   33  C   FEX N   1      28.607  46.732  58.694  0.00  0.00     0.048 C 
BRANCH  33  34
HETATM   34  C   FEX N   1      28.976  48.098  58.128  0.00  0.00     0.115 C 
BRANCH  34  35
HETATM   35  C   FEX N   1      28.019  48.540  57.071  0.00  0.00     0.258 C 
HETATM   36  O   FEX N   1      26.906  48.032  57.005  0.00  0.00    -0.265 OA
BRANCH  35  37
HETATM   37  O   FEX N   1      28.411  49.469  56.168  0.00  0.00    -0.326 OA
HETATM   38  C   FEX N   1      29.324  50.454  56.469  0.00  0.00     0.213 C 
ENDBRANCH  35  37
ENDBRANCH  34  35
ENDBRANCH  33  34
ENDBRANCH  31  33
ENDBRANCH   1  27
TORSDOF 12
ENDMDL
MODEL 4
REMARK VINA RESULT:      -6.7      2.044      4.761
REMARK  12 active torsions:
REMARK  status: ('A' for Active; 'I' for Inactive)
REMARK    1  A    between atoms: C_1  and  N_2 
REMARK    2  A    between atoms: O_3  and  C_21 
REMARK    3  A    between atoms: N_5  and  C_20 
REMARK    4  A    between atoms: N_5  and  C_21 
REMARK    5  A    between atoms: N_5  and  C_22 
REMARK    6  A    between atoms: O_6  and  C_30 
REMARK    7  A    between atoms: C_11  and  C_14 
REMARK    8  A    between atoms: C_17  and  C_20 
REMARK    9  A    between atoms: C_21  and  C_32 
REMARK   10  A    between atoms: C_26  and  C_28 
REMARK   11  A    between atoms: C_28  and  C_29 
REMARK   12  A    between atoms: C_29  and  C_30 
ROOT
HETATM    1  N   FEX N   1      31.004  43.224  58.527  0.00  0.00    -0.350 N 
ENDROOT
BRANCH   1   2
HETATM    2  C   FEX N   1      31.648  42.212  59.340  0.00  0.00     0.164 C 
BRANCH   2   3
HETATM    3  C   FEX N   1      32.725  42.837  60.185  0.00  0.00    -0.040 A 
HETATM    4  C   FEX N   1      33.989  43.070  59.634  0.00  0.00     0.009 A 
HETATM    5  C   FEX N   1      34.998  43.658  60.392  0.00  0.00     0.013 A 
HETATM    6  C   FEX N   1      34.761  44.040  61.719  0.00  0.00    -0.026 A 
HETATM    7  C   FEX N   1      33.489  43.811  62.275  0.00  0.00     0.013 A 
HETATM    8  C   FEX N   1      32.476  43.208  61.511  0.00  0.00     0.009 A 
BRANCH   6   9
HETATM    9  C   FEX N   1      35.845  44.681  62.504  0.00  0.00    -0.026 A 
HETATM   10  C   FEX N   1      37.112  44.898  61.943  0.00  0.00     0.014 A 
HETATM   11  C   FEX N   1      38.127  45.500  62.695  0.00  0.00     0.030 A 
HETATM   12  C   FEX N   1      37.895  45.897  64.023  0.00  0.00     0.029 A 
HETATM   13  C   FEX N   1      36.627  45.678  64.583  0.00  0.00     0.030 A 
HETATM   14  C   FEX N   1      35.615  45.077  63.833  0.00  0.00     0.014 A 
BRANCH  12  15
HETATM   15  N   FEX N   1      38.928  46.515  64.791  0.00  0.00    -0.390 N 
HETATM   16  C   FEX N   1      40.076  45.761  65.230  0.00  0.00     0.149 C 
HETATM   17  C   FEX N   1      38.849  47.909  65.151  0.00  0.00     0.149 C 
ENDBRANCH  12  15
ENDBRANCH   6   9
ENDBRANCH   2   3
ENDBRANCH   1   2
BRANCH   1  18
HETATM   18  C   FEX N   1      31.180  43.130  57.076  0.00  0.00     0.224 C 
BRANCH  18  19
HETATM   19  O   FEX N   1      32.504  42.838  56.749  0.00  0.00    -0.376 OA
HETATM   20  H   FEX N   1      32.527  42.084  56.138  0.00  0.00     0.212 HD
ENDBRANCH  18  19
BRANCH  18  21
HETATM   21  C   FEX N   1      30.240  42.236  56.262  0.00  0.00     0.034 C 
HETATM   22  C   FEX N   1      28.781  42.691  56.192  0.00  0.00     0.009 C 
HETATM   23  C   FEX N   1      27.905  41.714  55.392  0.00  0.00     0.001 C 
HETATM   24  C   FEX N   1      28.610  40.389  55.097  0.00  0.00     0.000 C 
HETATM   25  C   FEX N   1      29.922  40.630  54.335  0.00  0.00     0.001 C 
HETATM   26  C   FEX N   1      30.779  41.771  54.914  0.00  0.00     0.009 C 
ENDBRANCH  18  21
ENDBRANCH   1  18
BRANCH   1  27
HETATM   27  C   FEX N   1      30.359  44.309  59.189  0.00  0.00     0.033 A 
HETATM   28  C   FEX N   1      29.378  44.046  60.157  0.00  0.00     0.029 A 
HETATM   29  C   FEX N   1      28.673  45.092  60.757  0.00  0.00     0.003 A 
HETATM   30  C   FEX N   1      28.889  46.405  60.341  0.00  0.00     0.007 A 
HETATM   31  C   FEX N   1      29.824  46.679  59.338  0.00  0.00    -0.056 A 
HETATM   32  C   FEX N   1      30.569  45.632  58.770  0.00  0.00     0.036 A 
BRANCH  31  33
HETATM   33  C   FEX N   1      29.936  48.068  58.811  0.00  0.00     0.048 C 
BRANCH  33  34
HETATM   34  C   FEX N   1      29.716  48.039  57.304  0.00  0.00     0.115 C 
BRANCH  34  35
HETATM   35  C   FEX N   1      29.092  49.300  56.807  0.00  0.00     0.258 C 
HETATM   36  O   FEX N   1      27.871  49.407  56.781  0.00  0.00    -0.265 OA
BRANCH  35  37
HETATM   37  O   FEX N   1      29.884  50.297  56.350  0.00  0.00    -0.326 OA
HETATM   38  C   FEX N   1      31.168  50.078  55.906  0.00  0.00     0.213 C 
ENDBRANCH  35  37
ENDBRANCH  34  35
ENDBRANCH  33  34
ENDBRANCH  31  33
ENDBRANCH   1  27
TORSDOF 12
ENDMDL
MODEL 5
REMARK VINA RESULT:      -6.7      2.258      2.980
REMARK  12 active torsions:
REMARK  status: ('A' for Active; 'I' for Inactive)
REMARK    1  A    between atoms: C_1  and  N_2 
REMARK    2  A    between atoms: O_3  and  C_21 
REMARK    3  A    between atoms: N_5  and  C_20 
REMARK    4  A    between atoms: N_5  and  C_21 
REMARK    5  A    between atoms: N_5  and  C_22 
REMARK    6  A    between atoms: O_6  and  C_30 
REMARK    7  A    between atoms: C_11  and  C_14 
REMARK    8  A    between atoms: C_17  and  C_20 
REMARK    9  A    between atoms: C_21  and  C_32 
REMARK   10  A    between atoms: C_26  and  C_28 
REMARK   11  A    between atoms: C_28  and  C_29 
REMARK   12  A    between atoms: C_29  and  C_30 
ROOT
HETATM    1  N   FEX N   1      29.921  42.214  58.483  0.00  0.00    -0.350 N 
ENDROOT
BRANCH   1   2
HETATM    2  C   FEX N   1      30.538  41.383  59.497  0.00  0.00     0.164 C 
BRANCH   2   3
HETATM    3  C   FEX N   1      31.705  42.104  60.115  0.00  0.00    -0.040 A 
HETATM    4  C   FEX N   1      31.607  42.582  61.427  0.00  0.00     0.009 A 
HETATM    5  C   FEX N   1      32.677  43.241  62.026  0.00  0.00     0.013 A 
HETATM    6  C   FEX N   1      33.879  43.428  61.329  0.00  0.00    -0.026 A 
HETATM    7  C   FEX N   1      33.982  42.944  60.011  0.00  0.00     0.013 A 
HETATM    8  C   FEX N   1      32.897  42.288  59.406  0.00  0.00     0.009 A 
BRANCH   6   9
HETATM    9  C   FEX N   1      35.013  44.118  61.991  0.00  0.00    -0.026 A 
HETATM   10  C   FEX N   1      36.173  44.450  61.275  0.00  0.00     0.014 A 
HETATM   11  C   FEX N   1      37.238  45.098  61.911  0.00  0.00     0.030 A 
HETATM   12  C   FEX N   1      37.163  45.427  63.276  0.00  0.00     0.029 A 
HETATM   13  C   FEX N   1      36.002  45.094  63.990  0.00  0.00     0.030 A 
HETATM   14  C   FEX N   1      34.941  44.447  63.355  0.00  0.00     0.014 A 
BRANCH  12  15
HETATM   15  N   FEX N   1      38.246  46.092  63.927  0.00  0.00    -0.390 N 
HETATM   16  C   FEX N   1      38.275  47.529  64.036  0.00  0.00     0.149 C 
HETATM   17  C   FEX N   1      39.343  45.343  64.488  0.00  0.00     0.149 C 
ENDBRANCH  12  15
ENDBRANCH   6   9
ENDBRANCH   2   3
ENDBRANCH   1   2
BRANCH   1  18
HETATM   18  C   FEX N   1      28.984  43.242  58.938  0.00  0.00     0.224 C 
BRANCH  18  19
HETATM   19  O   FEX N   1      28.407  42.891  60.159  0.00  0.00    -0.376 OA
HETATM   20  H   FEX N   1      29.098  42.828  60.836  0.00  0.00     0.212 HD
ENDBRANCH  18  19
BRANCH  18  21
HETATM   21  C   FEX N   1      29.438  44.704  58.986  0.00  0.00     0.034 C 
HETATM   22  C   FEX N   1      29.623  45.300  60.383  0.00  0.00     0.009 C 
HETATM   23  C   FEX N   1      30.038  46.779  60.334  0.00  0.00     0.001 C 
HETATM   24  C   FEX N   1      29.895  47.390  58.939  0.00  0.00     0.000 C 
HETATM   25  C   FEX N   1      30.721  46.600  57.912  0.00  0.00     0.001 C 
HETATM   26  C   FEX N   1      30.569  45.072  58.032  0.00  0.00     0.009 C 
ENDBRANCH  18  21
ENDBRANCH   1  18
BRANCH   1  27
HETATM   27  C   FEX N   1      30.160  41.895  57.113  0.00  0.00     0.033 A 
HETATM   28  C   FEX N   1      31.285  42.426  56.464  0.00  0.00     0.029 A 
HETATM   29  C   FEX N   1      31.494  42.197  55.103  0.00  0.00     0.003 A 
HETATM   30  C   FEX N   1      30.543  41.497  54.361  0.00  0.00     0.007 A 
HETATM   31  C   FEX N   1      29.389  41.008  54.983  0.00  0.00    -0.056 A 
HETATM   32  C   FEX N   1      29.204  41.195  56.362  0.00  0.00     0.036 A 
BRANCH  31  33
HETATM   33  C   FEX N   1      28.323  40.387  54.146  0.00  0.00     0.048 C 
BRANCH  33  34
HETATM   34  C   FEX N   1      28.387  38.874  54.318  0.00  0.00     0.115 C 
BRANCH  34  35
HETATM   35  C   FEX N   1      27.671  38.159  53.221  0.00  0.00     0.258 C 
HETATM   36  O   FEX N   1      26.686  38.670  52.700  0.00  0.00    -0.265 OA
BRANCH  35  37
HETATM   37  O   FEX N   1      28.095  36.930  52.842  0.00  0.00    -0.326 OA
HETATM   38  C   FEX N   1      27.264  35.834  52.823  0.00  0.00     0.213 C 
ENDBRANCH  35  37
ENDBRANCH  34  35
ENDBRANCH  33  34
ENDBRANCH  31  33
ENDBRANCH   1  27
TORSDOF 12
ENDMDL
MODEL 6
REMARK VINA RESULT:      -6.4      3.335      6.926
REMARK  12 active torsions:
REMARK  status: ('A' for Active; 'I' for Inactive)
REMARK    1  A    between atoms: C_1  and  N_2 
REMARK    2  A    between atoms: O_3  and  C_21 
REMARK    3  A    between atoms: N_5  and  C_20 
REMARK    4  A    between atoms: N_5  and  C_21 
REMARK    5  A    between atoms: N_5  and  C_22 
REMARK    6  A    between atoms: O_6  and  C_30 
REMARK    7  A    between atoms: C_11  and  C_14 
REMARK    8  A    between atoms: C_17  and  C_20 
REMARK    9  A    between atoms: C_21  and  C_32 
REMARK   10  A    between atoms: C_26  and  C_28 
REMARK   11  A    between atoms: C_28  and  C_29 
REMARK   12  A    between atoms: C_29  and  C_30 
ROOT
HETATM    1  N   FEX N   1      30.313  43.430  58.194  0.00  0.00    -0.350 N 
ENDROOT
BRANCH   1   2
HETATM    2  C   FEX N   1      31.293  44.469  57.947  0.00  0.00     0.164 C 
BRANCH   2   3
HETATM    3  C   FEX N   1      30.717  45.815  58.297  0.00  0.00    -0.040 A 
HETATM    4  C   FEX N   1      30.274  46.060  59.602  0.00  0.00     0.009 A 
HETATM    5  C   FEX N   1      29.749  47.300  59.954  0.00  0.00     0.013 A 
HETATM    6  C   FEX N   1      29.667  48.333  59.010  0.00  0.00    -0.026 A 
HETATM    7  C   FEX N   1      30.116  48.091  57.698  0.00  0.00     0.013 A 
HETATM    8  C   FEX N   1      30.636  46.835  57.343  0.00  0.00     0.009 A 
BRANCH   6   9
HETATM    9  C   FEX N   1      29.120  49.653  59.410  0.00  0.00    -0.026 A 
HETATM   10  C   FEX N   1      29.065  50.717  58.498  0.00  0.00     0.014 A 
HETATM   11  C   FEX N   1      28.551  51.959  58.888  0.00  0.00     0.030 A 
HETATM   12  C   FEX N   1      28.080  52.160  60.197  0.00  0.00     0.029 A 
HETATM   13  C   FEX N   1      28.137  51.093  61.108  0.00  0.00     0.030 A 
HETATM   14  C   FEX N   1      28.651  49.856  60.719  0.00  0.00     0.014 A 
BRANCH  12  15
HETATM   15  N   FEX N   1      27.551  53.425  60.596  0.00  0.00    -0.390 N 
HETATM   16  C   FEX N   1      26.130  53.618  60.750  0.00  0.00     0.149 C 
HETATM   17  C   FEX N   1      28.424  54.544  60.852  0.00  0.00     0.149 C 
ENDBRANCH  12  15
ENDBRANCH   6   9
ENDBRANCH   2   3
ENDBRANCH   1   2
BRANCH   1  18
HETATM   18  C   FEX N   1      30.535  42.562  59.352  0.00  0.00     0.224 C 
BRANCH  18  19
HETATM   19  O   FEX N   1      30.645  41.226  58.964  0.00  0.00    -0.376 OA
HETATM   20  H   FEX N   1      29.832  40.753  59.201  0.00  0.00     0.212 HD
ENDBRANCH  18  19
BRANCH  18  21
HETATM   21  C   FEX N   1      31.651  42.903  60.343  0.00  0.00     0.034 C 
HETATM   22  C   FEX N   1      31.280  42.805  61.825  0.00  0.00     0.009 C 
HETATM   23  C   FEX N   1      32.446  43.205  62.744  0.00  0.00     0.001 C 
HETATM   24  C   FEX N   1      33.596  43.873  61.987  0.00  0.00     0.000 C 
HETATM   25  C   FEX N   1      34.122  42.952  60.876  0.00  0.00     0.001 C 
HETATM   26  C   FEX N   1      33.014  42.293  60.034  0.00  0.00     0.009 C 
ENDBRANCH  18  21
ENDBRANCH   1  18
BRANCH   1  27
HETATM   27  C   FEX N   1      29.280  43.236  57.230  0.00  0.00     0.033 A 
HETATM   28  C   FEX N   1      27.969  43.634  57.531  0.00  0.00     0.029 A 
HETATM   29  C   FEX N   1      26.926  43.377  56.638  0.00  0.00     0.003 A 
HETATM   30  C   FEX N   1      27.172  42.655  55.471  0.00  0.00     0.007 A 
HETATM   31  C   FEX N   1      28.464  42.204  55.184  0.00  0.00    -0.056 A 
HETATM   32  C   FEX N   1      29.521  42.506  56.057  0.00  0.00     0.036 A 
BRANCH  31  33
HETATM   33  C   FEX N   1      28.676  41.316  54.005  0.00  0.00     0.048 C 
BRANCH  33  34
HETATM   34  C   FEX N   1      29.605  42.021  53.024  0.00  0.00     0.115 C 
BRANCH  34  35
HETATM   35  C   FEX N   1      28.891  42.436  51.781  0.00  0.00     0.258 C 
HETATM   36  O   FEX N   1      28.845  43.620  51.471  0.00  0.00    -0.265 OA
BRANCH  35  37
HETATM   37  O   FEX N   1      28.265  41.499  51.031  0.00  0.00    -0.326 OA
HETATM   38  C   FEX N   1      26.924  41.565  50.731  0.00  0.00     0.213 C 
ENDBRANCH  35  37
ENDBRANCH  34  35
ENDBRANCH  33  34
ENDBRANCH  31  33
ENDBRANCH   1  27
TORSDOF 12
ENDMDL
MODEL 7
REMARK VINA RESULT:      -6.3      3.141     10.078
REMARK  12 active torsions:
REMARK  status: ('A' for Active; 'I' for Inactive)
REMARK    1  A    between atoms: C_1  and  N_2 
REMARK    2  A    between atoms: O_3  and  C_21 
REMARK    3  A    between atoms: N_5  and  C_20 
REMARK    4  A    between atoms: N_5  and  C_21 
REMARK    5  A    between atoms: N_5  and  C_22 
REMARK    6  A    between atoms: O_6  and  C_30 
REMARK    7  A    between atoms: C_11  and  C_14 
REMARK    8  A    between atoms: C_17  and  C_20 
REMARK    9  A    between atoms: C_21  and  C_32 
REMARK   10  A    between atoms: C_26  and  C_28 
REMARK   11  A    between atoms: C_28  and  C_29 
REMARK   12  A    between atoms: C_29  and  C_30 
ROOT
HETATM    1  N   FEX N   1      31.097  43.094  59.039  0.00  0.00    -0.350 N 
ENDROOT
BRANCH   1   2
HETATM    2  C   FEX N   1      30.251  41.934  58.843  0.00  0.00     0.164 C 
BRANCH   2   3
HETATM    3  C   FEX N   1      29.531  42.036  57.525  0.00  0.00    -0.040 A 
HETATM    4  C   FEX N   1      30.261  42.001  56.333  0.00  0.00     0.009 A 
HETATM    5  C   FEX N   1      29.617  42.081  55.101  0.00  0.00     0.013 A 
HETATM    6  C   FEX N   1      28.221  42.186  55.033  0.00  0.00    -0.026 A 
HETATM    7  C   FEX N   1      27.483  42.217  56.231  0.00  0.00     0.013 A 
HETATM    8  C   FEX N   1      28.136  42.145  57.472  0.00  0.00     0.009 A 
BRANCH   6   9
HETATM    9  C   FEX N   1      27.553  42.253  53.710  0.00  0.00    -0.026 A 
HETATM   10  C   FEX N   1      26.281  41.694  53.515  0.00  0.00     0.014 A 
HETATM   11  C   FEX N   1      25.663  41.760  52.261  0.00  0.00     0.030 A 
HETATM   12  C   FEX N   1      26.303  42.388  51.179  0.00  0.00     0.029 A 
HETATM   13  C   FEX N   1      27.575  42.947  51.377  0.00  0.00     0.030 A 
HETATM   14  C   FEX N   1      28.192  42.879  52.627  0.00  0.00     0.014 A 
BRANCH  12  15
HETATM   15  N   FEX N   1      25.672  42.461  49.900  0.00  0.00    -0.390 N 
HETATM   16  C   FEX N   1      25.097  43.696  49.427  0.00  0.00     0.149 C 
HETATM   17  C   FEX N   1      25.589  41.300  49.049  0.00  0.00     0.149 C 
ENDBRANCH  12  15
ENDBRANCH   6   9
ENDBRANCH   2   3
ENDBRANCH   1   2
BRANCH   1  18
HETATM   18  C   FEX N   1      32.529  42.854  59.228  0.00  0.00     0.224 C 
BRANCH  18  19
HETATM   19  O   FEX N   1      33.255  43.228  58.097  0.00  0.00    -0.376 OA
HETATM   20  H   FEX N   1      33.223  44.192  57.997  0.00  0.00     0.212 HD
ENDBRANCH  18  19
BRANCH  18  21
HETATM   21  C   FEX N   1      33.220  43.393  60.484  0.00  0.00     0.034 C 
HETATM   22  C   FEX N   1      32.545  43.054  61.815  0.00  0.00     0.009 C 
HETATM   23  C   FEX N   1      33.282  43.670  63.015  0.00  0.00     0.001 C 
HETATM   24  C   FEX N   1      34.335  44.700  62.600  0.00  0.00     0.000 C 
HETATM   25  C   FEX N   1      35.361  44.072  61.644  0.00  0.00     0.001 C 
HETATM   26  C   FEX N   1      34.734  43.217  60.528  0.00  0.00     0.009 C 
ENDBRANCH  18  21
ENDBRANCH   1  18
BRANCH   1  27
HETATM   27  C   FEX N   1      30.472  44.369  59.165  0.00  0.00     0.033 A 
HETATM   28  C   FEX N   1      29.391  44.528  60.045  0.00  0.00     0.029 A 
HETATM   29  C   FEX N   1      28.710  45.745  60.122  0.00  0.00     0.003 A 
HETATM   30  C   FEX N   1      29.056  46.791  59.267  0.00  0.00     0.007 A 
HETATM   31  C   FEX N   1      30.095  46.630  58.346  0.00  0.00    -0.056 A 
HETATM   32  C   FEX N   1      30.812  45.423  58.303  0.00  0.00     0.036 A 
BRANCH  31  33
HETATM   33  C   FEX N   1      30.353  47.707  57.349  0.00  0.00     0.048 C 
BRANCH  33  34
HETATM   34  C   FEX N   1      29.972  49.047  57.969  0.00  0.00     0.115 C 
BRANCH  34  35
HETATM   35  C   FEX N   1      29.661  50.073  56.931  0.00  0.00     0.258 C 
HETATM   36  O   FEX N   1      28.758  50.878  57.121  0.00  0.00    -0.265 OA
BRANCH  35  37
HETATM   37  O   FEX N   1      30.356  50.073  55.769  0.00  0.00    -0.326 OA
HETATM   38  C   FEX N   1      29.975  50.822  54.680  0.00  0.00     0.213 C 
ENDBRANCH  35  37
ENDBRANCH  34  35
ENDBRANCH  33  34
ENDBRANCH  31  33
ENDBRANCH   1  27
TORSDOF 12
ENDMDL
MODEL 8
REMARK VINA RESULT:      -6.3      3.414     10.391
REMARK  12 active torsions:
REMARK  status: ('A' for Active; 'I' for Inactive)
REMARK    1  A    between atoms: C_1  and  N_2 
REMARK    2  A    between atoms: O_3  and  C_21 
REMARK    3  A    between atoms: N_5  and  C_20 
REMARK    4  A    between atoms: N_5  and  C_21 
REMARK    5  A    between atoms: N_5  and  C_22 
REMARK    6  A    between atoms: O_6  and  C_30 
REMARK    7  A    between atoms: C_11  and  C_14 
REMARK    8  A    between atoms: C_17  and  C_20 
REMARK    9  A    between atoms: C_21  and  C_32 
REMARK   10  A    between atoms: C_26  and  C_28 
REMARK   11  A    between atoms: C_28  and  C_29 
REMARK   12  A    between atoms: C_29  and  C_30 
ROOT
HETATM    1  N   FEX N   1      32.084  43.445  61.888  0.00  0.00    -0.350 N 
ENDROOT
BRANCH   1   2
HETATM    2  C   FEX N   1      32.436  42.237  61.169  0.00  0.00     0.164 C 
BRANCH   2   3
HETATM    3  C   FEX N   1      31.794  42.241  59.808  0.00  0.00    -0.040 A 
HETATM    4  C   FEX N   1      30.718  41.385  59.547  0.00  0.00     0.009 A 
HETATM    5  C   FEX N   1      30.099  41.379  58.301  0.00  0.00     0.013 A 
HETATM    6  C   FEX N   1      30.534  42.241  57.285  0.00  0.00    -0.026 A 
HETATM    7  C   FEX N   1      31.614  43.107  57.545  0.00  0.00     0.013 A 
HETATM    8  C   FEX N   1      32.243  43.103  58.801  0.00  0.00     0.009 A 
BRANCH   6   9
HETATM    9  C   FEX N   1      29.851  42.231  55.968  0.00  0.00    -0.026 A 
HETATM   10  C   FEX N   1      28.494  42.571  55.857  0.00  0.00     0.014 A 
HETATM   11  C   FEX N   1      27.859  42.554  54.610  0.00  0.00     0.030 A 
HETATM   12  C   FEX N   1      28.569  42.198  53.450  0.00  0.00     0.029 A 
HETATM   13  C   FEX N   1      29.926  41.857  53.564  0.00  0.00     0.030 A 
HETATM   14  C   FEX N   1      30.558  41.873  54.808  0.00  0.00     0.014 A 
BRANCH  12  15
HETATM   15  N   FEX N   1      27.924  42.184  52.176  0.00  0.00    -0.390 N 
HETATM   16  C   FEX N   1      28.501  41.472  51.062  0.00  0.00     0.149 C 
HETATM   17  C   FEX N   1      26.681  42.884  51.969  0.00  0.00     0.149 C 
ENDBRANCH  12  15
ENDBRANCH   6   9
ENDBRANCH   2   3
ENDBRANCH   1   2
BRANCH   1  18
HETATM   18  C   FEX N   1      30.672  43.832  61.897  0.00  0.00     0.224 C 
BRANCH  18  19
HETATM   19  O   FEX N   1      30.324  44.435  63.106  0.00  0.00    -0.376 OA
HETATM   20  H   FEX N   1      31.117  44.808  63.521  0.00  0.00     0.212 HD
ENDBRANCH  18  19
BRANCH  18  21
HETATM   21  C   FEX N   1      30.111  44.654  60.733  0.00  0.00     0.034 C 
HETATM   22  C   FEX N   1      28.700  44.282  60.272  0.00  0.00     0.009 C 
HETATM   23  C   FEX N   1      28.237  45.128  59.075  0.00  0.00     0.001 C 
HETATM   24  C   FEX N   1      29.373  45.934  58.443  0.00  0.00     0.000 C 
HETATM   25  C   FEX N   1      30.033  46.851  59.484  0.00  0.00     0.001 C 
HETATM   26  C   FEX N   1      30.323  46.161  60.830  0.00  0.00     0.009 C 
ENDBRANCH  18  21
ENDBRANCH   1  18
BRANCH   1  27
HETATM   27  C   FEX N   1      33.139  44.241  62.423  0.00  0.00     0.033 A 
HETATM   28  C   FEX N   1      32.831  45.394  63.162  0.00  0.00     0.029 A 
HETATM   29  C   FEX N   1      33.847  46.234  63.623  0.00  0.00     0.003 A 
HETATM   30  C   FEX N   1      35.174  45.971  63.286  0.00  0.00     0.007 A 
HETATM   31  C   FEX N   1      35.492  44.857  62.504  0.00  0.00    -0.056 A 
HETATM   32  C   FEX N   1      34.475  43.984  62.083  0.00  0.00     0.036 A 
BRANCH  31  33
HETATM   33  C   FEX N   1      36.896  44.674  62.039  0.00  0.00     0.048 C 
BRANCH  33  34
HETATM   34  C   FEX N   1      37.761  45.766  62.658  0.00  0.00     0.115 C 
BRANCH  34  35
HETATM   35  C   FEX N   1      38.629  45.237  63.750  0.00  0.00     0.258 C 
HETATM   36  O   FEX N   1      39.393  45.992  64.342  0.00  0.00    -0.265 OA
BRANCH  35  37
HETATM   37  O   FEX N   1      38.593  43.917  64.047  0.00  0.00    -0.326 OA
HETATM   38  C   FEX N   1      38.370  43.451  65.322  0.00  0.00     0.213 C 
ENDBRANCH  35  37
ENDBRANCH  34  35
ENDBRANCH  33  34
ENDBRANCH  31  33
ENDBRANCH   1  27
TORSDOF 12
ENDMDL
MODEL 9
REMARK VINA RESULT:      -6.2      2.854      6.771
REMARK  12 active torsions:
REMARK  status: ('A' for Active; 'I' for Inactive)
REMARK    1  A    between atoms: C_1  and  N_2 
REMARK    2  A    between atoms: O_3  and  C_21 
REMARK    3  A    between atoms: N_5  and  C_20 
REMARK    4  A    between atoms: N_5  and  C_21 
REMARK    5  A    between atoms: N_5  and  C_22 
REMARK    6  A    between atoms: O_6  and  C_30 
REMARK    7  A    between atoms: C_11  and  C_14 
REMARK    8  A    between atoms: C_17  and  C_20 
REMARK    9  A    between atoms: C_21  and  C_32 
REMARK   10  A    between atoms: C_26  and  C_28 
REMARK   11  A    between atoms: C_28  and  C_29 
REMARK   12  A    between atoms: C_29  and  C_30 
ROOT
HETATM    1  N   FEX N   1      31.884  42.332  59.192  0.00  0.00    -0.350 N 
ENDROOT
BRANCH   1   2
HETATM    2  C   FEX N   1      32.304  43.270  58.171  0.00  0.00     0.164 C 
BRANCH   2   3
HETATM    3  C   FEX N   1      31.578  44.577  58.341  0.00  0.00    -0.040 A 
HETATM    4  C   FEX N   1      30.929  44.856  59.549  0.00  0.00     0.009 A 
HETATM    5  C   FEX N   1      30.262  46.064  59.736  0.00  0.00     0.013 A 
HETATM    6  C   FEX N   1      30.238  47.029  58.720  0.00  0.00    -0.026 A 
HETATM    7  C   FEX N   1      30.894  46.753  57.505  0.00  0.00     0.013 A 
HETATM    8  C   FEX N   1      31.558  45.530  57.316  0.00  0.00     0.009 A 
BRANCH   6   9
HETATM    9  C   FEX N   1      29.535  48.316  58.945  0.00  0.00    -0.026 A 
HETATM   10  C   FEX N   1      29.738  49.409  58.089  0.00  0.00     0.014 A 
HETATM   11  C   FEX N   1      29.073  50.619  58.314  0.00  0.00     0.030 A 
HETATM   12  C   FEX N   1      28.190  50.760  59.399  0.00  0.00     0.029 A 
HETATM   13  C   FEX N   1      27.990  49.666  60.255  0.00  0.00     0.030 A 
HETATM   14  C   FEX N   1      28.654  48.459  60.031  0.00  0.00     0.014 A 
BRANCH  12  15
HETATM   15  N   FEX N   1      27.507  51.993  59.628  0.00  0.00    -0.390 N 
HETATM   16  C   FEX N   1      28.178  53.107  60.251  0.00  0.00     0.149 C 
HETATM   17  C   FEX N   1      26.126  52.155  59.247  0.00  0.00     0.149 C 
ENDBRANCH  12  15
ENDBRANCH   6   9
ENDBRANCH   2   3
ENDBRANCH   1   2
BRANCH   1  18
HETATM   18  C   FEX N   1      32.792  42.120  60.321  0.00  0.00     0.224 C 
BRANCH  18  19
HETATM   19  O   FEX N   1      34.093  41.877  59.880  0.00  0.00    -0.376 OA
HETATM   20  H   FEX N   1      34.119  41.915  58.912  0.00  0.00     0.212 HD
ENDBRANCH  18  19
BRANCH  18  21
HETATM   21  C   FEX N   1      32.819  43.139  61.464  0.00  0.00     0.034 C 
HETATM   22  C   FEX N   1      31.908  42.830  62.654  0.00  0.00     0.009 C 
HETATM   23  C   FEX N   1      31.968  43.924  63.732  0.00  0.00     0.001 C 
HETATM   24  C   FEX N   1      32.687  45.188  63.255  0.00  0.00     0.000 C 
HETATM   25  C   FEX N   1      34.113  44.859  62.790  0.00  0.00     0.001 C 
HETATM   26  C   FEX N   1      34.204  43.614  61.888  0.00  0.00     0.009 C 
ENDBRANCH  18  21
ENDBRANCH   1  18
BRANCH   1  27
HETATM   27  C   FEX N   1      30.690  41.584  58.971  0.00  0.00     0.033 A 
HETATM   28  C   FEX N   1      30.152  40.813  60.011  0.00  0.00     0.029 A 
HETATM   29  C   FEX N   1      29.032  40.007  59.794  0.00  0.00     0.003 A 
HETATM   30  C   FEX N   1      28.486  39.907  58.514  0.00  0.00     0.007 A 
HETATM   31  C   FEX N   1      29.045  40.627  57.454  0.00  0.00    -0.056 A 
HETATM   32  C   FEX N   1      30.140  41.477  57.685  0.00  0.00     0.036 A 
BRANCH  31  33
HETATM   33  C   FEX N   1      28.534  40.397  56.073  0.00  0.00     0.048 C 
BRANCH  33  34
HETATM   34  C   FEX N   1      29.711  40.052  55.169  0.00  0.00     0.115 C 
BRANCH  34  35
HETATM   35  C   FEX N   1      30.066  41.182  54.260  0.00  0.00     0.258 C 
HETATM   36  O   FEX N   1      31.216  41.605  54.233  0.00  0.00    -0.265 OA
BRANCH  35  37
HETATM   37  O   FEX N   1      29.100  41.754  53.505  0.00  0.00    -0.326 OA
HETATM   38  C   FEX N   1      29.349  42.276  52.256  0.00  0.00     0.213 C 
ENDBRANCH  35  37
ENDBRANCH  34  35
ENDBRANCH  33  34
ENDBRANCH  31  33
ENDBRANCH   1  27
TORSDOF 12
ENDMDL
