MODEL 1
REMARK VINA RESULT:      -8.5      0.000      0.000
REMARK  3 active torsions:
REMARK  status: ('A' for Active; 'I' for Inactive)
REMARK    1  A    between atoms: C_6  and  C_7 
REMARK    2  A    between atoms: C_10  and  O_11 
REMARK    3  A    between atoms: C_17  and  O_18 
ROOT
HETATM    1  O   UNK N   1      40.129  46.731  46.222  0.00  0.00    -0.292 OA
HETATM    2  C   UNK N   1      40.601  45.784  46.831  0.00  0.00     0.165 C 
HETATM    3  C   UNK N   1      41.387  44.738  46.135  0.00  0.00     0.043 A 
HETATM    4  C   UNK N   1      41.908  43.678  46.903  0.00  0.00     0.086 A 
HETATM    5  O   UNK N   1      41.744  43.676  48.249  0.00  0.00    -0.340 OA
HETATM    6  C   UNK N   1      41.500  44.858  48.931  0.00  0.00     0.169 C 
HETATM    7  C   UNK N   1      40.316  45.607  48.299  0.00  0.00     0.121 C 
HETATM    8  C   UNK N   1      42.606  42.641  46.288  0.00  0.00     0.074 A 
HETATM    9  C   UNK N   1      42.827  42.671  44.903  0.00  0.00     0.068 A 
HETATM   10  C   UNK N   1      42.336  43.740  44.140  0.00  0.00     0.037 A 
HETATM   11  C   UNK N   1      41.612  44.770  44.751  0.00  0.00     0.021 A 
ENDROOT
BRANCH   6  12
HETATM   12  C   UNK N   1      41.277  44.608  50.396  0.00  0.00    -0.028 A 
HETATM   13  C   UNK N   1      40.328  43.656  50.797  0.00  0.00     0.012 A 
HETATM   14  C   UNK N   1      40.110  43.407  52.153  0.00  0.00     0.037 A 
HETATM   15  C   UNK N   1      40.840  44.105  53.121  0.00  0.00     0.065 A 
HETATM   16  C   UNK N   1      41.790  45.058  52.725  0.00  0.00     0.037 A 
HETATM   17  C   UNK N   1      42.009  45.309  51.370  0.00  0.00     0.012 A 
BRANCH  15  18
HETATM   18  O   UNK N   1      40.626  43.854  54.427  0.00  0.00    -0.361 OA
HETATM   19  H   UNK N   1      40.950  43.043  54.844  0.00  0.00     0.217 HD
ENDBRANCH  15  18
ENDBRANCH   6  12
BRANCH   9  20
HETATM   20  O   UNK N   1      43.514  41.680  44.303  0.00  0.00    -0.361 OA
HETATM   21  H   UNK N   1      43.101  40.826  44.107  0.00  0.00     0.217 HD
ENDBRANCH   9  20
TORSDOF 3
ENDMDL
MODEL 2
REMARK VINA RESULT:      -7.2      3.862      7.667
REMARK  3 active torsions:
REMARK  status: ('A' for Active; 'I' for Inactive)
REMARK    1  A    between atoms: C_6  and  C_7 
REMARK    2  A    between atoms: C_10  and  O_11 
REMARK    3  A    between atoms: C_17  and  O_18 
ROOT
HETATM    1  O   UNK N   1      43.465  48.257  47.610  0.00  0.00    -0.292 OA
HETATM    2  C   UNK N   1      42.347  47.962  47.215  0.00  0.00     0.165 C 
HETATM    3  C   UNK N   1      41.504  46.991  47.952  0.00  0.00     0.043 A 
HETATM    4  C   UNK N   1      40.222  46.706  47.443  0.00  0.00     0.086 A 
HETATM    5  O   UNK N   1      39.767  47.369  46.351  0.00  0.00    -0.340 OA
HETATM    6  C   UNK N   1      40.300  48.599  45.999  0.00  0.00     0.169 C 
HETATM    7  C   UNK N   1      41.832  48.515  45.913  0.00  0.00     0.121 C 
HETATM    8  C   UNK N   1      39.412  45.760  48.068  0.00  0.00     0.074 A 
HETATM    9  C   UNK N   1      39.859  45.116  49.231  0.00  0.00     0.068 A 
HETATM   10  C   UNK N   1      41.121  45.420  49.758  0.00  0.00     0.037 A 
HETATM   11  C   UNK N   1      41.948  46.351  49.118  0.00  0.00     0.021 A 
ENDROOT
BRANCH   6  12
HETATM   12  C   UNK N   1      39.701  49.110  44.720  0.00  0.00    -0.028 A 
HETATM   13  C   UNK N   1      38.608  48.437  44.153  0.00  0.00     0.012 A 
HETATM   14  C   UNK N   1      38.035  48.899  42.967  0.00  0.00     0.037 A 
HETATM   15  C   UNK N   1      38.547  50.038  42.338  0.00  0.00     0.065 A 
HETATM   16  C   UNK N   1      39.641  50.714  42.900  0.00  0.00     0.037 A 
HETATM   17  C   UNK N   1      40.214  50.254  44.086  0.00  0.00     0.012 A 
BRANCH  15  18
HETATM   18  O   UNK N   1      37.984  50.478  41.196  0.00  0.00    -0.361 OA
HETATM   19  H   UNK N   1      38.464  51.062  40.590  0.00  0.00     0.217 HD
ENDBRANCH  15  18
ENDBRANCH   6  12
BRANCH   9  20
HETATM   20  O   UNK N   1      39.076  44.210  49.849  0.00  0.00    -0.361 OA
HETATM   21  H   UNK N   1      38.260  43.885  49.440  0.00  0.00     0.217 HD
ENDBRANCH   9  20
TORSDOF 3
ENDMDL
MODEL 3
REMARK VINA RESULT:      -7.1      2.959      3.370
REMARK  3 active torsions:
REMARK  status: ('A' for Active; 'I' for Inactive)
REMARK    1  A    between atoms: C_6  and  C_7 
REMARK    2  A    between atoms: C_10  and  O_11 
REMARK    3  A    between atoms: C_17  and  O_18 
ROOT
HETATM    1  O   UNK N   1      37.858  45.200  47.017  0.00  0.00    -0.292 OA
HETATM    2  C   UNK N   1      38.919  45.452  47.565  0.00  0.00     0.165 C 
HETATM    3  C   UNK N   1      39.868  46.434  46.988  0.00  0.00     0.043 A 
HETATM    4  C   UNK N   1      41.070  46.680  47.679  0.00  0.00     0.086 A 
HETATM    5  O   UNK N   1      41.297  46.079  48.874  0.00  0.00    -0.340 OA
HETATM    6  C   UNK N   1      40.241  45.611  49.640  0.00  0.00     0.169 C 
HETATM    7  C   UNK N   1      39.334  44.698  48.801  0.00  0.00     0.121 C 
HETATM    8  C   UNK N   1      42.019  47.553  47.150  0.00  0.00     0.074 A 
HETATM    9  C   UNK N   1      41.760  48.219  45.944  0.00  0.00     0.068 A 
HETATM   10  C   UNK N   1      40.551  48.000  45.269  0.00  0.00     0.037 A 
HETATM   11  C   UNK N   1      39.607  47.105  45.785  0.00  0.00     0.021 A 
ENDROOT
BRANCH   6  12
HETATM   12  C   UNK N   1      40.729  44.918  50.880  0.00  0.00    -0.028 A 
HETATM   13  C   UNK N   1      41.777  45.486  51.621  0.00  0.00     0.012 A 
HETATM   14  C   UNK N   1      42.241  44.859  52.778  0.00  0.00     0.037 A 
HETATM   15  C   UNK N   1      41.662  43.660  53.207  0.00  0.00     0.065 A 
HETATM   16  C   UNK N   1      40.614  43.088  52.470  0.00  0.00     0.037 A 
HETATM   17  C   UNK N   1      40.149  43.713  51.313  0.00  0.00     0.012 A 
BRANCH  15  18
HETATM   18  O   UNK N   1      42.114  43.065  54.328  0.00  0.00    -0.361 OA
HETATM   19  H   UNK N   1      42.262  42.109  54.367  0.00  0.00     0.217 HD
ENDBRANCH  15  18
ENDBRANCH   6  12
BRANCH   9  20
HETATM   20  O   UNK N   1      42.666  49.076  45.434  0.00  0.00    -0.361 OA
HETATM   21  H   UNK N   1      43.556  49.151  45.808  0.00  0.00     0.217 HD
ENDBRANCH   9  20
TORSDOF 3
ENDMDL
MODEL 4
REMARK VINA RESULT:      -6.6      2.612      3.485
REMARK  3 active torsions:
REMARK  status: ('A' for Active; 'I' for Inactive)
REMARK    1  A    between atoms: C_6  and  C_7 
REMARK    2  A    between atoms: C_10  and  O_11 
REMARK    3  A    between atoms: C_17  and  O_18 
ROOT
HETATM    1  O   UNK N   1      39.783  46.321  46.081  0.00  0.00    -0.292 OA
HETATM    2  C   UNK N   1      40.616  46.377  46.972  0.00  0.00     0.165 C 
HETATM    3  C   UNK N   1      41.781  47.288  46.878  0.00  0.00     0.043 A 
HETATM    4  C   UNK N   1      42.697  47.305  47.948  0.00  0.00     0.086 A 
HETATM    5  O   UNK N   1      42.459  46.556  49.053  0.00  0.00    -0.340 OA
HETATM    6  C   UNK N   1      41.172  46.146  49.362  0.00  0.00     0.169 C 
HETATM    7  C   UNK N   1      40.526  45.449  48.155  0.00  0.00     0.121 C 
HETATM    8  C   UNK N   1      43.838  48.103  47.884  0.00  0.00     0.074 A 
HETATM    9  C   UNK N   1      44.057  48.922  46.767  0.00  0.00     0.068 A 
HETATM   10  C   UNK N   1      43.131  48.931  45.714  0.00  0.00     0.037 A 
HETATM   11  C   UNK N   1      41.997  48.111  45.764  0.00  0.00     0.021 A 
ENDROOT
BRANCH   6  12
HETATM   12  C   UNK N   1      41.155  45.268  50.581  0.00  0.00    -0.028 A 
HETATM   13  C   UNK N   1      40.263  44.186  50.639  0.00  0.00     0.012 A 
HETATM   14  C   UNK N   1      40.236  43.356  51.762  0.00  0.00     0.037 A 
HETATM   15  C   UNK N   1      41.101  43.597  52.834  0.00  0.00     0.065 A 
HETATM   16  C   UNK N   1      41.995  44.678  52.780  0.00  0.00     0.037 A 
HETATM   17  C   UNK N   1      42.023  45.508  51.660  0.00  0.00     0.012 A 
BRANCH  15  18
HETATM   18  O   UNK N   1      41.070  42.788  53.910  0.00  0.00    -0.361 OA
HETATM   19  H   UNK N   1      41.755  42.120  54.059  0.00  0.00     0.217 HD
ENDBRANCH  15  18
ENDBRANCH   6  12
BRANCH   9  20
HETATM   20  O   UNK N   1      45.150  49.708  46.704  0.00  0.00    -0.361 OA
HETATM   21  H   UNK N   1      45.611  49.865  45.867  0.00  0.00     0.217 HD
ENDBRANCH   9  20
TORSDOF 3
ENDMDL
MODEL 5
REMARK VINA RESULT:      -6.5      2.353      4.404
REMARK  3 active torsions:
REMARK  status: ('A' for Active; 'I' for Inactive)
REMARK    1  A    between atoms: C_6  and  C_7 
REMARK    2  A    between atoms: C_10  and  O_11 
REMARK    3  A    between atoms: C_17  and  O_18 
ROOT
HETATM    1  O   UNK N   1      41.600  45.496  44.810  0.00  0.00    -0.292 OA
HETATM    2  C   UNK N   1      41.224  46.012  45.851  0.00  0.00     0.165 C 
HETATM    3  C   UNK N   1      40.437  47.268  45.845  0.00  0.00     0.043 A 
HETATM    4  C   UNK N   1      40.030  47.802  47.083  0.00  0.00     0.086 A 
HETATM    5  O   UNK N   1      40.300  47.129  48.229  0.00  0.00    -0.340 OA
HETATM    6  C   UNK N   1      40.540  45.765  48.206  0.00  0.00     0.169 C 
HETATM    7  C   UNK N   1      41.632  45.430  47.178  0.00  0.00     0.121 C 
HETATM    8  C   UNK N   1      39.336  49.009  47.134  0.00  0.00     0.074 A 
HETATM    9  C   UNK N   1      39.006  49.677  45.945  0.00  0.00     0.068 A 
HETATM   10  C   UNK N   1      39.382  49.132  44.710  0.00  0.00     0.037 A 
HETATM   11  C   UNK N   1      40.102  47.933  44.656  0.00  0.00     0.021 A 
ENDROOT
BRANCH   6  12
HETATM   12  C   UNK N   1      40.889  45.247  49.572  0.00  0.00    -0.028 A 
HETATM   13  C   UNK N   1      41.904  45.877  50.310  0.00  0.00     0.012 A 
HETATM   14  C   UNK N   1      42.239  45.413  51.583  0.00  0.00     0.037 A 
HETATM   15  C   UNK N   1      41.563  44.318  52.132  0.00  0.00     0.065 A 
HETATM   16  C   UNK N   1      40.549  43.685  51.398  0.00  0.00     0.037 A 
HETATM   17  C   UNK N   1      40.212  44.147  50.125  0.00  0.00     0.012 A 
BRANCH  15  18
HETATM   18  O   UNK N   1      41.892  43.881  53.363  0.00  0.00    -0.361 OA
HETATM   19  H   UNK N   1      41.368  43.204  53.814  0.00  0.00     0.217 HD
ENDBRANCH  15  18
ENDBRANCH   6  12
BRANCH   9  20
HETATM   20  O   UNK N   1      38.321  50.837  45.986  0.00  0.00    -0.361 OA
HETATM   21  H   UNK N   1      38.341  51.407  46.768  0.00  0.00     0.217 HD
ENDBRANCH   9  20
TORSDOF 3
ENDMDL
MODEL 6
REMARK VINA RESULT:      -6.5      3.075      6.759
REMARK  3 active torsions:
REMARK  status: ('A' for Active; 'I' for Inactive)
REMARK    1  A    between atoms: C_6  and  C_7 
REMARK    2  A    between atoms: C_10  and  O_11 
REMARK    3  A    between atoms: C_17  and  O_18 
ROOT
HETATM    1  O   UNK N   1      38.336  43.879  48.347  0.00  0.00    -0.292 OA
HETATM    2  C   UNK N   1      39.140  44.794  48.443  0.00  0.00     0.165 C 
HETATM    3  C   UNK N   1      40.100  44.857  49.570  0.00  0.00     0.043 A 
HETATM    4  C   UNK N   1      41.003  45.937  49.612  0.00  0.00     0.086 A 
HETATM    5  O   UNK N   1      41.023  46.840  48.600  0.00  0.00    -0.340 OA
HETATM    6  C   UNK N   1      40.535  46.505  47.347  0.00  0.00     0.169 C 
HETATM    7  C   UNK N   1      39.112  45.935  47.461  0.00  0.00     0.121 C 
HETATM    8  C   UNK N   1      41.889  46.072  50.679  0.00  0.00     0.074 A 
HETATM    9  C   UNK N   1      41.909  45.108  51.698  0.00  0.00     0.068 A 
HETATM   10  C   UNK N   1      41.033  44.015  51.643  0.00  0.00     0.037 A 
HETATM   11  C   UNK N   1      40.124  43.890  50.586  0.00  0.00     0.021 A 
ENDROOT
BRANCH   6  12
HETATM   12  C   UNK N   1      40.587  47.676  46.408  0.00  0.00    -0.028 A 
HETATM   13  C   UNK N   1      39.396  48.166  45.850  0.00  0.00     0.012 A 
HETATM   14  C   UNK N   1      39.424  49.257  44.979  0.00  0.00     0.037 A 
HETATM   15  C   UNK N   1      40.640  49.869  44.660  0.00  0.00     0.065 A 
HETATM   16  C   UNK N   1      41.833  49.382  45.215  0.00  0.00     0.037 A 
HETATM   17  C   UNK N   1      41.808  48.293  46.085  0.00  0.00     0.012 A 
BRANCH  15  18
HETATM   18  O   UNK N   1      40.656  50.924  43.822  0.00  0.00    -0.361 OA
HETATM   19  H   UNK N   1      40.558  51.830  44.149  0.00  0.00     0.217 HD
ENDBRANCH  15  18
ENDBRANCH   6  12
BRANCH   9  20
HETATM   20  O   UNK N   1      42.773  45.223  52.725  0.00  0.00    -0.361 OA
HETATM   21  H   UNK N   1      42.626  45.863  53.438  0.00  0.00     0.217 HD
ENDBRANCH   9  20
TORSDOF 3
ENDMDL
MODEL 7
REMARK VINA RESULT:      -6.2     13.294     16.075
REMARK  3 active torsions:
REMARK  status: ('A' for Active; 'I' for Inactive)
REMARK    1  A    between atoms: C_6  and  C_7 
REMARK    2  A    between atoms: C_10  and  O_11 
REMARK    3  A    between atoms: C_17  and  O_18 
ROOT
HETATM    1  O   UNK N   1      33.492  55.161  45.396  0.00  0.00    -0.292 OA
HETATM    2  C   UNK N   1      32.813  54.584  44.561  0.00  0.00     0.165 C 
HETATM    3  C   UNK N   1      32.974  53.132  44.309  0.00  0.00     0.043 A 
HETATM    4  C   UNK N   1      32.151  52.533  43.336  0.00  0.00     0.086 A 
HETATM    5  O   UNK N   1      31.195  53.267  42.714  0.00  0.00    -0.340 OA
HETATM    6  C   UNK N   1      30.700  54.421  43.301  0.00  0.00     0.169 C 
HETATM    7  C   UNK N   1      31.852  55.358  43.697  0.00  0.00     0.121 C 
HETATM    8  C   UNK N   1      32.302  51.183  43.023  0.00  0.00     0.074 A 
HETATM    9  C   UNK N   1      33.250  50.408  43.706  0.00  0.00     0.068 A 
HETATM   10  C   UNK N   1      34.050  50.995  44.696  0.00  0.00     0.037 A 
HETATM   11  C   UNK N   1      33.919  52.356  44.995  0.00  0.00     0.021 A 
ENDROOT
BRANCH   6  12
HETATM   12  C   UNK N   1      29.711  55.110  42.405  0.00  0.00    -0.028 A 
HETATM   13  C   UNK N   1      29.826  56.491  42.184  0.00  0.00     0.012 A 
HETATM   14  C   UNK N   1      28.919  57.148  41.350  0.00  0.00     0.037 A 
HETATM   15  C   UNK N   1      27.890  56.431  40.729  0.00  0.00     0.065 A 
HETATM   16  C   UNK N   1      27.771  55.051  40.949  0.00  0.00     0.037 A 
HETATM   17  C   UNK N   1      28.676  54.392  41.781  0.00  0.00     0.012 A 
BRANCH  15  18
HETATM   18  O   UNK N   1      27.023  57.074  39.924  0.00  0.00    -0.361 OA
HETATM   19  H   UNK N   1      26.110  57.243  40.199  0.00  0.00     0.217 HD
ENDBRANCH  15  18
ENDBRANCH   6  12
BRANCH   9  20
HETATM   20  O   UNK N   1      33.392  49.099  43.419  0.00  0.00    -0.361 OA
HETATM   21  H   UNK N   1      33.858  48.805  42.623  0.00  0.00     0.217 HD
ENDBRANCH   9  20
TORSDOF 3
ENDMDL
MODEL 8
REMARK VINA RESULT:      -6.0      1.744      3.449
REMARK  3 active torsions:
REMARK  status: ('A' for Active; 'I' for Inactive)
REMARK    1  A    between atoms: C_6  and  C_7 
REMARK    2  A    between atoms: C_10  and  O_11 
REMARK    3  A    between atoms: C_17  and  O_18 
ROOT
HETATM    1  O   UNK N   1      41.656  43.588  46.118  0.00  0.00    -0.292 OA
HETATM    2  C   UNK N   1      41.395  44.377  47.013  0.00  0.00     0.165 C 
HETATM    3  C   UNK N   1      40.856  45.725  46.715  0.00  0.00     0.043 A 
HETATM    4  C   UNK N   1      40.570  46.579  47.798  0.00  0.00     0.086 A 
HETATM    5  O   UNK N   1      40.722  46.131  49.069  0.00  0.00    -0.340 OA
HETATM    6  C   UNK N   1      40.703  44.773  49.345  0.00  0.00     0.169 C 
HETATM    7  C   UNK N   1      41.701  44.029  48.445  0.00  0.00     0.121 C 
HETATM    8  C   UNK N   1      40.115  47.876  47.569  0.00  0.00     0.074 A 
HETATM    9  C   UNK N   1      39.902  48.322  46.256  0.00  0.00     0.068 A 
HETATM   10  C   UNK N   1      40.156  47.464  45.178  0.00  0.00     0.037 A 
HETATM   11  C   UNK N   1      40.639  46.169  45.403  0.00  0.00     0.021 A 
ENDROOT
BRANCH   6  12
HETATM   12  C   UNK N   1      40.964  44.507  50.800  0.00  0.00    -0.028 A 
HETATM   13  C   UNK N   1      40.291  43.455  51.440  0.00  0.00     0.012 A 
HETATM   14  C   UNK N   1      40.524  43.188  52.790  0.00  0.00     0.037 A 
HETATM   15  C   UNK N   1      41.433  43.968  53.513  0.00  0.00     0.065 A 
HETATM   16  C   UNK N   1      42.108  45.022  52.877  0.00  0.00     0.037 A 
HETATM   17  C   UNK N   1      41.876  45.289  51.528  0.00  0.00     0.012 A 
BRANCH  15  18
HETATM   18  O   UNK N   1      41.655  43.701  54.814  0.00  0.00    -0.361 OA
HETATM   19  H   UNK N   1      42.508  43.890  55.230  0.00  0.00     0.217 HD
ENDBRANCH  15  18
ENDBRANCH   6  12
BRANCH   9  20
HETATM   20  O   UNK N   1      39.447  49.569  46.028  0.00  0.00    -0.361 OA
HETATM   21  H   UNK N   1      39.371  50.217  46.743  0.00  0.00     0.217 HD
ENDBRANCH   9  20
TORSDOF 3
ENDMDL
MODEL 9
REMARK VINA RESULT:      -5.9     13.302     16.014
REMARK  3 active torsions:
REMARK  status: ('A' for Active; 'I' for Inactive)
REMARK    1  A    between atoms: C_6  and  C_7 
REMARK    2  A    between atoms: C_10  and  O_11 
REMARK    3  A    between atoms: C_17  and  O_18 
ROOT
HETATM    1  O   UNK N   1      32.994  51.991  44.600  0.00  0.00    -0.292 OA
HETATM    2  C   UNK N   1      32.341  52.159  43.582  0.00  0.00     0.165 C 
HETATM    3  C   UNK N   1      31.940  51.016  42.728  0.00  0.00     0.043 A 
HETATM    4  C   UNK N   1      31.180  51.285  41.573  0.00  0.00     0.086 A 
HETATM    5  O   UNK N   1      30.777  52.553  41.311  0.00  0.00    -0.340 OA
HETATM    6  C   UNK N   1      30.685  53.489  42.329  0.00  0.00     0.169 C 
HETATM    7  C   UNK N   1      32.002  53.552  43.119  0.00  0.00     0.121 C 
HETATM    8  C   UNK N   1      30.825  50.251  40.709  0.00  0.00     0.074 A 
HETATM    9  C   UNK N   1      31.192  48.932  41.009  0.00  0.00     0.068 A 
HETATM   10  C   UNK N   1      31.922  48.657  42.173  0.00  0.00     0.037 A 
HETATM   11  C   UNK N   1      32.302  49.696  43.031  0.00  0.00     0.021 A 
ENDROOT
BRANCH   6  12
HETATM   12  C   UNK N   1      30.294  54.839  41.799  0.00  0.00    -0.028 A 
HETATM   13  C   UNK N   1      30.800  55.267  40.562  0.00  0.00     0.012 A 
HETATM   14  C   UNK N   1      30.444  56.516  40.051  0.00  0.00     0.037 A 
HETATM   15  C   UNK N   1      29.577  57.347  40.768  0.00  0.00     0.065 A 
HETATM   16  C   UNK N   1      29.069  56.923  42.005  0.00  0.00     0.037 A 
HETATM   17  C   UNK N   1      29.423  55.675  42.518  0.00  0.00     0.012 A 
BRANCH  15  18
HETATM   18  O   UNK N   1      29.236  58.549  40.264  0.00  0.00    -0.361 OA
HETATM   19  H   UNK N   1      28.438  59.011  40.557  0.00  0.00     0.217 HD
ENDBRANCH  15  18
ENDBRANCH   6  12
BRANCH   9  20
HETATM   20  O   UNK N   1      30.840  47.925  40.185  0.00  0.00    -0.361 OA
HETATM   21  H   UNK N   1      31.336  47.739  39.374  0.00  0.00     0.217 HD
ENDBRANCH   9  20
TORSDOF 3
ENDMDL
