MODEL 1
REMARK VINA RESULT:      -6.8      0.000      0.000
REMARK  10 active torsions:
REMARK  status: ('A' for Active; 'I' for Inactive)
REMARK    1  A    between atoms: C_2  and  O_3 
REMARK    2  A    between atoms: C_2  and  C_5 
REMARK    3  A    between atoms: C_8  and  O_9 
REMARK    4  A    between atoms: O_9  and  C_10 
REMARK    5  A    between atoms: C_12  and  C_22 
REMARK    6  A    between atoms: C_13  and  O_14 
REMARK    7  A    between atoms: C_16  and  O_17 
REMARK    8  A    between atoms: C_19  and  O_20 
REMARK    9  A    between atoms: C_22  and  O_23 
REMARK   10  A    between atoms: C_27  and  O_28 
ROOT
HETATM    1  C   UNK N   1      42.306  43.600  46.124  0.00  0.00     0.044 C 
HETATM    2  C   UNK N   1      41.826  42.875  47.161  0.00  0.00     0.151 C 
HETATM    3  O   UNK N   1      41.203  43.481  48.208  0.00  0.00    -0.331 OA
HETATM    4  C   UNK N   1      40.611  44.726  48.071  0.00  0.00     0.273 C 
HETATM    5  C   UNK N   1      41.655  45.692  47.473  0.00  0.00     0.056 C 
HETATM    6  C   UNK N   1      41.074  47.059  47.056  0.00  0.00     0.020 C 
HETATM    7  C   UNK N   1      40.374  46.710  45.732  0.00  0.00     0.123 C 
HETATM    8  C   UNK N   1      41.324  45.726  45.030  0.00  0.00     0.042 C 
HETATM    9  C   UNK N   1      42.200  45.119  46.152  0.00  0.00     0.038 C 
HETATM   10  C   UNK N   1      42.180  48.118  46.876  0.00  0.00     0.013 C 
ENDROOT
BRANCH   4  11
HETATM   11  O   UNK N   1      40.209  45.246  49.324  0.00  0.00    -0.328 OA
BRANCH  11  12
HETATM   12  C   UNK N   1      40.834  44.597  50.413  0.00  0.00     0.294 C 
HETATM   13  O   UNK N   1      39.852  44.030  51.270  0.00  0.00    -0.348 OA
HETATM   14  C   UNK N   1      40.464  43.331  52.344  0.00  0.00     0.179 C 
HETATM   15  C   UNK N   1      41.214  44.324  53.263  0.00  0.00     0.180 C 
HETATM   16  C   UNK N   1      42.278  45.054  52.421  0.00  0.00     0.183 C 
HETATM   17  C   UNK N   1      41.629  45.677  51.176  0.00  0.00     0.204 C 
BRANCH  14  18
HETATM   18  C   UNK N   1      39.377  42.560  53.109  0.00  0.00     0.198 C 
BRANCH  18  19
HETATM   19  O   UNK N   1      39.166  43.104  54.385  0.00  0.00    -0.398 OA
HETATM   20  H   UNK N   1      38.566  42.477  54.867  0.00  0.00     0.209 HD
ENDBRANCH  18  19
ENDBRANCH  14  18
BRANCH  15  21
HETATM   21  O   UNK N   1      41.827  43.633  54.321  0.00  0.00    -0.390 OA
HETATM   22  H   UNK N   1      41.962  42.699  54.013  0.00  0.00     0.210 HD
ENDBRANCH  15  21
BRANCH  16  23
HETATM   23  O   UNK N   1      42.950  46.028  53.180  0.00  0.00    -0.390 OA
HETATM   24  H   UNK N   1      42.965  46.867  52.646  0.00  0.00     0.210 HD
ENDBRANCH  16  23
BRANCH  17  25
HETATM   25  O   UNK N   1      42.633  46.225  50.360  0.00  0.00    -0.388 OA
HETATM   26  H   UNK N   1      42.813  47.141  50.694  0.00  0.00     0.210 HD
ENDBRANCH  17  25
ENDBRANCH  11  12
ENDBRANCH   4  11
BRANCH   1  27
HETATM   27  C   UNK N   1      42.941  42.925  44.962  0.00  0.00     0.291 C 
HETATM   28  O   UNK N   1      42.732  43.338  43.831  0.00  0.00    -0.260 OA
BRANCH  27  29
HETATM   29  O   UNK N   1      43.711  41.821  45.159  0.00  0.00    -0.323 OA
HETATM   30  C   UNK N   1      44.974  41.866  45.711  0.00  0.00     0.213 C 
ENDBRANCH  27  29
ENDBRANCH   1  27
BRANCH   7  31
HETATM   31  O   UNK N   1      40.066  47.815  44.925  0.00  0.00    -0.395 OA
HETATM   32  H   UNK N   1      40.690  48.540  45.190  0.00  0.00     0.210 HD
ENDBRANCH   7  31
TORSDOF 10
ENDMDL
MODEL 2
REMARK VINA RESULT:      -6.2      2.305      6.493
REMARK  10 active torsions:
REMARK  status: ('A' for Active; 'I' for Inactive)
REMARK    1  A    between atoms: C_2  and  O_3 
REMARK    2  A    between atoms: C_2  and  C_5 
REMARK    3  A    between atoms: C_8  and  O_9 
REMARK    4  A    between atoms: O_9  and  C_10 
REMARK    5  A    between atoms: C_12  and  C_22 
REMARK    6  A    between atoms: C_13  and  O_14 
REMARK    7  A    between atoms: C_16  and  O_17 
REMARK    8  A    between atoms: C_19  and  O_20 
REMARK    9  A    between atoms: C_22  and  O_23 
REMARK   10  A    between atoms: C_27  and  O_28 
ROOT
HETATM    1  C   UNK N   1      41.851  43.198  46.429  0.00  0.00     0.044 C 
HETATM    2  C   UNK N   1      41.310  43.858  45.379  0.00  0.00     0.151 C 
HETATM    3  O   UNK N   1      40.364  44.817  45.568  0.00  0.00    -0.331 OA
HETATM    4  C   UNK N   1      40.255  45.493  46.774  0.00  0.00     0.273 C 
HETATM    5  C   UNK N   1      40.152  44.447  47.904  0.00  0.00     0.056 C 
HETATM    6  C   UNK N   1      40.249  45.048  49.322  0.00  0.00     0.020 C 
HETATM    7  C   UNK N   1      41.761  45.303  49.449  0.00  0.00     0.123 C 
HETATM    8  C   UNK N   1      42.424  44.084  48.789  0.00  0.00     0.042 C 
HETATM    9  C   UNK N   1      41.356  43.489  47.840  0.00  0.00     0.038 C 
HETATM   10  C   UNK N   1      39.724  44.072  50.392  0.00  0.00     0.013 C 
ENDROOT
BRANCH   4  11
HETATM   11  O   UNK N   1      39.086  46.288  46.813  0.00  0.00    -0.328 OA
BRANCH  11  12
HETATM   12  C   UNK N   1      39.290  47.591  46.305  0.00  0.00     0.294 C 
HETATM   13  O   UNK N   1      38.675  47.717  45.030  0.00  0.00    -0.348 OA
HETATM   14  C   UNK N   1      38.828  49.036  44.526  0.00  0.00     0.179 C 
HETATM   15  C   UNK N   1      40.321  49.323  44.237  0.00  0.00     0.180 C 
HETATM   16  C   UNK N   1      41.110  49.154  45.550  0.00  0.00     0.183 C 
HETATM   17  C   UNK N   1      40.815  47.780  46.168  0.00  0.00     0.204 C 
BRANCH  14  18
HETATM   18  C   UNK N   1      37.968  49.180  43.261  0.00  0.00     0.198 C 
BRANCH  18  19
HETATM   19  O   UNK N   1      38.763  49.322  42.114  0.00  0.00    -0.398 OA
HETATM   20  H   UNK N   1      39.445  50.011  42.322  0.00  0.00     0.209 HD
ENDBRANCH  18  19
ENDBRANCH  14  18
BRANCH  15  21
HETATM   21  O   UNK N   1      40.474  50.630  43.747  0.00  0.00    -0.390 OA
HETATM   22  H   UNK N   1      41.370  50.674  43.323  0.00  0.00     0.210 HD
ENDBRANCH  15  21
BRANCH  16  23
HETATM   23  O   UNK N   1      42.489  49.329  45.342  0.00  0.00    -0.390 OA
HETATM   24  H   UNK N   1      42.809  48.564  44.794  0.00  0.00     0.210 HD
ENDBRANCH  16  23
BRANCH  17  25
HETATM   25  O   UNK N   1      41.441  47.698  47.424  0.00  0.00    -0.388 OA
HETATM   26  H   UNK N   1      42.123  46.980  47.364  0.00  0.00     0.210 HD
ENDBRANCH  17  25
ENDBRANCH  11  12
ENDBRANCH   4  11
BRANCH   1  27
HETATM   27  C   UNK N   1      42.920  42.187  46.216  0.00  0.00     0.291 C 
HETATM   28  O   UNK N   1      42.724  41.021  46.525  0.00  0.00    -0.260 OA
BRANCH  27  29
HETATM   29  O   UNK N   1      44.127  42.575  45.725  0.00  0.00    -0.323 OA
HETATM   30  C   UNK N   1      44.599  42.197  44.485  0.00  0.00     0.213 C 
ENDBRANCH  27  29
ENDBRANCH   1  27
BRANCH   7  31
HETATM   31  O   UNK N   1      42.210  45.504  50.763  0.00  0.00    -0.395 OA
HETATM   32  H   UNK N   1      41.411  45.740  51.301  0.00  0.00     0.210 HD
ENDBRANCH   7  31
TORSDOF 10
ENDMDL
MODEL 3
REMARK VINA RESULT:      -6.0      2.680      7.560
REMARK  10 active torsions:
REMARK  status: ('A' for Active; 'I' for Inactive)
REMARK    1  A    between atoms: C_2  and  O_3 
REMARK    2  A    between atoms: C_2  and  C_5 
REMARK    3  A    between atoms: C_8  and  O_9 
REMARK    4  A    between atoms: O_9  and  C_10 
REMARK    5  A    between atoms: C_12  and  C_22 
REMARK    6  A    between atoms: C_13  and  O_14 
REMARK    7  A    between atoms: C_16  and  O_17 
REMARK    8  A    between atoms: C_19  and  O_20 
REMARK    9  A    between atoms: C_22  and  O_23 
REMARK   10  A    between atoms: C_27  and  O_28 
ROOT
HETATM    1  C   UNK N   1      41.736  44.111  45.838  0.00  0.00     0.044 C 
HETATM    2  C   UNK N   1      41.780  45.115  44.931  0.00  0.00     0.151 C 
HETATM    3  O   UNK N   1      41.096  46.273  45.136  0.00  0.00    -0.331 OA
HETATM    4  C   UNK N   1      40.740  46.683  46.411  0.00  0.00     0.273 C 
HETATM    5  C   UNK N   1      39.991  45.521  47.098  0.00  0.00     0.056 C 
HETATM    6  C   UNK N   1      39.728  45.751  48.601  0.00  0.00     0.020 C 
HETATM    7  C   UNK N   1      41.111  45.457  49.208  0.00  0.00     0.123 C 
HETATM    8  C   UNK N   1      41.641  44.250  48.417  0.00  0.00     0.042 C 
HETATM    9  C   UNK N   1      40.865  44.253  47.079  0.00  0.00     0.038 C 
HETATM   10  C   UNK N   1      38.636  44.806  49.140  0.00  0.00     0.013 C 
ENDROOT
BRANCH   4  11
HETATM   11  O   UNK N   1      39.867  47.794  46.369  0.00  0.00    -0.328 OA
BRANCH  11  12
HETATM   12  C   UNK N   1      39.639  48.265  45.055  0.00  0.00     0.294 C 
HETATM   13  O   UNK N   1      39.889  49.662  44.989  0.00  0.00    -0.348 OA
HETATM   14  C   UNK N   1      39.713  50.142  43.664  0.00  0.00     0.179 C 
HETATM   15  C   UNK N   1      38.227  50.021  43.250  0.00  0.00     0.180 C 
HETATM   16  C   UNK N   1      37.817  48.539  43.343  0.00  0.00     0.183 C 
HETATM   17  C   UNK N   1      38.156  47.986  44.735  0.00  0.00     0.204 C 
BRANCH  14  18
HETATM   18  C   UNK N   1      40.203  51.597  43.601  0.00  0.00     0.198 C 
BRANCH  18  19
HETATM   19  O   UNK N   1      40.089  52.121  42.304  0.00  0.00    -0.398 OA
HETATM   20  H   UNK N   1      40.417  53.056  42.344  0.00  0.00     0.209 HD
ENDBRANCH  18  19
ENDBRANCH  14  18
BRANCH  15  21
HETATM   21  O   UNK N   1      38.054  50.488  41.936  0.00  0.00    -0.390 OA
HETATM   22  H   UNK N   1      38.771  50.075  41.388  0.00  0.00     0.210 HD
ENDBRANCH  15  21
BRANCH  16  23
HETATM   23  O   UNK N   1      36.453  48.368  43.050  0.00  0.00    -0.390 OA
HETATM   24  H   UNK N   1      36.058  49.271  42.920  0.00  0.00     0.210 HD
ENDBRANCH  16  23
BRANCH  17  25
HETATM   25  O   UNK N   1      37.894  46.605  44.757  0.00  0.00    -0.388 OA
HETATM   26  H   UNK N   1      38.746  46.143  44.546  0.00  0.00     0.210 HD
ENDBRANCH  17  25
ENDBRANCH  11  12
ENDBRANCH   4  11
BRANCH   1  27
HETATM   27  C   UNK N   1      42.527  42.870  45.629  0.00  0.00     0.291 C 
HETATM   28  O   UNK N   1      42.516  41.992  46.479  0.00  0.00    -0.260 OA
BRANCH  27  29
HETATM   29  O   UNK N   1      43.298  42.740  44.516  0.00  0.00    -0.323 OA
HETATM   30  C   UNK N   1      44.544  42.151  44.520  0.00  0.00     0.213 C 
ENDBRANCH  27  29
ENDBRANCH   1  27
BRANCH   7  31
HETATM   31  O   UNK N   1      41.104  45.222  50.591  0.00  0.00    -0.395 OA
HETATM   32  H   UNK N   1      40.466  44.478  50.747  0.00  0.00     0.210 HD
ENDBRANCH   7  31
TORSDOF 10
ENDMDL
MODEL 4
REMARK VINA RESULT:      -5.2      2.772      7.645
REMARK  10 active torsions:
REMARK  status: ('A' for Active; 'I' for Inactive)
REMARK    1  A    between atoms: C_2  and  O_3 
REMARK    2  A    between atoms: C_2  and  C_5 
REMARK    3  A    between atoms: C_8  and  O_9 
REMARK    4  A    between atoms: O_9  and  C_10 
REMARK    5  A    between atoms: C_12  and  C_22 
REMARK    6  A    between atoms: C_13  and  O_14 
REMARK    7  A    between atoms: C_16  and  O_17 
REMARK    8  A    between atoms: C_19  and  O_20 
REMARK    9  A    between atoms: C_22  and  O_23 
REMARK   10  A    between atoms: C_27  and  O_28 
ROOT
HETATM    1  C   UNK N   1      41.743  45.822  48.739  0.00  0.00     0.044 C 
HETATM    2  C   UNK N   1      41.646  47.168  48.828  0.00  0.00     0.151 C 
HETATM    3  O   UNK N   1      41.516  47.935  47.712  0.00  0.00    -0.331 OA
HETATM    4  C   UNK N   1      41.007  47.411  46.534  0.00  0.00     0.273 C 
HETATM    5  C   UNK N   1      41.811  46.140  46.186  0.00  0.00     0.056 C 
HETATM    6  C   UNK N   1      41.214  45.324  45.020  0.00  0.00     0.020 C 
HETATM    7  C   UNK N   1      40.038  44.611  45.708  0.00  0.00     0.123 C 
HETATM    8  C   UNK N   1      40.574  44.209  47.091  0.00  0.00     0.042 C 
HETATM    9  C   UNK N   1      41.766  45.155  47.369  0.00  0.00     0.038 C 
HETATM   10  C   UNK N   1      42.240  44.335  44.433  0.00  0.00     0.013 C 
ENDROOT
BRANCH   4  11
HETATM   11  O   UNK N   1      41.154  48.321  45.460  0.00  0.00    -0.328 OA
BRANCH  11  12
HETATM   12  C   UNK N   1      39.929  48.906  45.064  0.00  0.00     0.294 C 
HETATM   13  O   UNK N   1      39.030  47.898  44.620  0.00  0.00    -0.348 OA
HETATM   14  C   UNK N   1      37.777  48.463  44.264  0.00  0.00     0.179 C 
HETATM   15  C   UNK N   1      37.939  49.374  43.025  0.00  0.00     0.180 C 
HETATM   16  C   UNK N   1      38.950  50.484  43.368  0.00  0.00     0.183 C 
HETATM   17  C   UNK N   1      40.251  49.865  43.900  0.00  0.00     0.204 C 
BRANCH  14  18
HETATM   18  C   UNK N   1      36.782  47.321  44.003  0.00  0.00     0.198 C 
BRANCH  18  19
HETATM   19  O   UNK N   1      36.452  47.230  42.643  0.00  0.00    -0.398 OA
HETATM   20  H   UNK N   1      35.903  48.028  42.428  0.00  0.00     0.209 HD
ENDBRANCH  18  19
ENDBRANCH  14  18
BRANCH  15  21
HETATM   21  O   UNK N   1      36.701  49.940  42.678  0.00  0.00    -0.390 OA
HETATM   22  H   UNK N   1      36.442  50.541  43.423  0.00  0.00     0.210 HD
ENDBRANCH  15  21
BRANCH  16  23
HETATM   23  O   UNK N   1      39.201  51.308  42.257  0.00  0.00    -0.390 OA
HETATM   24  H   UNK N   1      39.485  50.721  41.506  0.00  0.00     0.210 HD
ENDBRANCH  16  23
BRANCH  17  25
HETATM   25  O   UNK N   1      41.109  50.894  44.326  0.00  0.00    -0.388 OA
HETATM   26  H   UNK N   1      41.966  50.779  43.841  0.00  0.00     0.210 HD
ENDBRANCH  17  25
ENDBRANCH  11  12
ENDBRANCH   4  11
BRANCH   1  27
HETATM   27  C   UNK N   1      41.835  44.989  49.966  0.00  0.00     0.291 C 
HETATM   28  O   UNK N   1      42.321  43.869  49.906  0.00  0.00    -0.260 OA
BRANCH  27  29
HETATM   29  O   UNK N   1      41.332  45.458  51.140  0.00  0.00    -0.323 OA
HETATM   30  C   UNK N   1      41.977  45.322  52.351  0.00  0.00     0.213 C 
ENDBRANCH  27  29
ENDBRANCH   1  27
BRANCH   7  31
HETATM   31  O   UNK N   1      39.526  43.514  45.000  0.00  0.00    -0.395 OA
HETATM   32  H   UNK N   1      39.711  42.711  45.552  0.00  0.00     0.210 HD
ENDBRANCH   7  31
TORSDOF 10
ENDMDL
MODEL 5
REMARK VINA RESULT:      -5.2     12.708     16.200
REMARK  10 active torsions:
REMARK  status: ('A' for Active; 'I' for Inactive)
REMARK    1  A    between atoms: C_2  and  O_3 
REMARK    2  A    between atoms: C_2  and  C_5 
REMARK    3  A    between atoms: C_8  and  O_9 
REMARK    4  A    between atoms: O_9  and  C_10 
REMARK    5  A    between atoms: C_12  and  C_22 
REMARK    6  A    between atoms: C_13  and  O_14 
REMARK    7  A    between atoms: C_16  and  O_17 
REMARK    8  A    between atoms: C_19  and  O_20 
REMARK    9  A    between atoms: C_22  and  O_23 
REMARK   10  A    between atoms: C_27  and  O_28 
ROOT
HETATM    1  C   UNK N   1      30.379  41.287  59.575  0.00  0.00     0.044 C 
HETATM    2  C   UNK N   1      29.486  40.505  58.925  0.00  0.00     0.151 C 
HETATM    3  O   UNK N   1      28.748  40.996  57.893  0.00  0.00    -0.331 OA
HETATM    4  C   UNK N   1      29.176  42.090  57.158  0.00  0.00     0.273 C 
HETATM    5  C   UNK N   1      29.497  43.234  58.143  0.00  0.00     0.056 C 
HETATM    6  C   UNK N   1      30.197  44.444  57.487  0.00  0.00     0.020 C 
HETATM    7  C   UNK N   1      31.638  43.926  57.337  0.00  0.00     0.123 C 
HETATM    8  C   UNK N   1      31.912  43.140  58.629  0.00  0.00     0.042 C 
HETATM    9  C   UNK N   1      30.522  42.753  59.186  0.00  0.00     0.038 C 
HETATM   10  C   UNK N   1      30.112  45.701  58.375  0.00  0.00     0.013 C 
ENDROOT
BRANCH   4  11
HETATM   11  O   UNK N   1      28.166  42.547  56.280  0.00  0.00    -0.328 OA
BRANCH  11  12
HETATM   12  C   UNK N   1      28.083  41.784  55.092  0.00  0.00     0.294 C 
HETATM   13  O   UNK N   1      28.469  42.575  53.977  0.00  0.00    -0.348 OA
HETATM   14  C   UNK N   1      28.439  41.809  52.782  0.00  0.00     0.179 C 
HETATM   15  C   UNK N   1      26.984  41.402  52.450  0.00  0.00     0.180 C 
HETATM   16  C   UNK N   1      26.429  40.580  53.629  0.00  0.00     0.183 C 
HETATM   17  C   UNK N   1      26.608  41.356  54.942  0.00  0.00     0.204 C 
BRANCH  14  18
HETATM   18  C   UNK N   1      29.068  42.639  51.652  0.00  0.00     0.198 C 
BRANCH  18  19
HETATM   19  O   UNK N   1      29.533  41.820  50.613  0.00  0.00    -0.398 OA
HETATM   20  H   UNK N   1      29.373  40.882  50.894  0.00  0.00     0.209 HD
ENDBRANCH  18  19
ENDBRANCH  14  18
BRANCH  15  21
HETATM   21  O   UNK N   1      26.955  40.636  51.272  0.00  0.00    -0.390 OA
HETATM   22  H   UNK N   1      27.878  40.306  51.122  0.00  0.00     0.210 HD
ENDBRANCH  15  21
BRANCH  16  23
HETATM   23  O   UNK N   1      25.081  40.240  53.424  0.00  0.00    -0.390 OA
HETATM   24  H   UNK N   1      24.602  40.381  54.284  0.00  0.00     0.210 HD
ENDBRANCH  16  23
BRANCH  17  25
HETATM   25  O   UNK N   1      26.216  40.539  56.016  0.00  0.00    -0.388 OA
HETATM   26  H   UNK N   1      25.605  39.848  55.649  0.00  0.00     0.210 HD
ENDBRANCH  17  25
ENDBRANCH  11  12
ENDBRANCH   4  11
BRANCH   1  27
HETATM   27  C   UNK N   1      31.216  40.728  60.669  0.00  0.00     0.291 C 
HETATM   28  O   UNK N   1      30.989  41.040  61.828  0.00  0.00    -0.260 OA
BRANCH  27  29
HETATM   29  O   UNK N   1      32.262  39.912  60.368  0.00  0.00    -0.323 OA
HETATM   30  C   UNK N   1      32.169  38.536  60.348  0.00  0.00     0.213 C 
ENDBRANCH  27  29
ENDBRANCH   1  27
BRANCH   7  31
HETATM   31  O   UNK N   1      32.596  44.926  57.112  0.00  0.00    -0.395 OA
HETATM   32  H   UNK N   1      33.466  44.462  56.998  0.00  0.00     0.210 HD
ENDBRANCH   7  31
TORSDOF 10
ENDMDL
MODEL 6
REMARK VINA RESULT:      -5.2     14.720     17.440
REMARK  10 active torsions:
REMARK  status: ('A' for Active; 'I' for Inactive)
REMARK    1  A    between atoms: C_2  and  O_3 
REMARK    2  A    between atoms: C_2  and  C_5 
REMARK    3  A    between atoms: C_8  and  O_9 
REMARK    4  A    between atoms: O_9  and  C_10 
REMARK    5  A    between atoms: C_12  and  C_22 
REMARK    6  A    between atoms: C_13  and  O_14 
REMARK    7  A    between atoms: C_16  and  O_17 
REMARK    8  A    between atoms: C_19  and  O_20 
REMARK    9  A    between atoms: C_22  and  O_23 
REMARK   10  A    between atoms: C_27  and  O_28 
ROOT
HETATM    1  C   UNK N   1      44.884  57.212  59.663  0.00  0.00     0.044 C 
HETATM    2  C   UNK N   1      45.142  57.917  58.537  0.00  0.00     0.151 C 
HETATM    3  O   UNK N   1      46.363  57.861  57.941  0.00  0.00    -0.331 OA
HETATM    4  C   UNK N   1      47.208  56.779  58.132  0.00  0.00     0.273 C 
HETATM    5  C   UNK N   1      47.374  56.561  59.651  0.00  0.00     0.056 C 
HETATM    6  C   UNK N   1      48.109  55.255  60.017  0.00  0.00     0.020 C 
HETATM    7  C   UNK N   1      47.005  54.205  59.804  0.00  0.00     0.123 C 
HETATM    8  C   UNK N   1      45.725  54.863  60.341  0.00  0.00     0.042 C 
HETATM    9  C   UNK N   1      45.992  56.387  60.307  0.00  0.00     0.038 C 
HETATM   10  C   UNK N   1      48.626  55.279  61.469  0.00  0.00     0.013 C 
ENDROOT
BRANCH   4  11
HETATM   11  O   UNK N   1      48.491  57.026  57.589  0.00  0.00    -0.328 OA
BRANCH  11  12
HETATM   12  C   UNK N   1      48.615  56.587  56.251  0.00  0.00     0.294 C 
HETATM   13  O   UNK N   1      49.769  55.768  56.113  0.00  0.00    -0.348 OA
HETATM   14  C   UNK N   1      49.882  55.278  54.785  0.00  0.00     0.179 C 
HETATM   15  C   UNK N   1      50.151  56.448  53.810  0.00  0.00     0.180 C 
HETATM   16  C   UNK N   1      48.983  57.447  53.916  0.00  0.00     0.183 C 
HETATM   17  C   UNK N   1      48.769  57.853  55.381  0.00  0.00     0.204 C 
BRANCH  14  18
HETATM   18  C   UNK N   1      51.007  54.233  54.743  0.00  0.00     0.198 C 
BRANCH  18  19
HETATM   19  O   UNK N   1      51.014  53.536  53.526  0.00  0.00    -0.398 OA
HETATM   20  H   UNK N   1      50.073  53.499  53.212  0.00  0.00     0.209 HD
ENDBRANCH  18  19
ENDBRANCH  14  18
BRANCH  15  21
HETATM   21  O   UNK N   1      50.254  55.965  52.495  0.00  0.00    -0.390 OA
HETATM   22  H   UNK N   1      49.415  55.469  52.305  0.00  0.00     0.210 HD
ENDBRANCH  15  21
BRANCH  16  23
HETATM   23  O   UNK N   1      49.200  58.575  53.107  0.00  0.00    -0.390 OA
HETATM   24  H   UNK N   1      49.711  59.237  53.645  0.00  0.00     0.210 HD
ENDBRANCH  16  23
BRANCH  17  25
HETATM   25  O   UNK N   1      47.622  58.660  55.472  0.00  0.00    -0.388 OA
HETATM   26  H   UNK N   1      46.837  58.069  55.333  0.00  0.00     0.210 HD
ENDBRANCH  17  25
ENDBRANCH  11  12
ENDBRANCH   4  11
BRANCH   1  27
HETATM   27  C   UNK N   1      43.532  57.241  60.280  0.00  0.00     0.291 C 
HETATM   28  O   UNK N   1      43.418  57.213  61.496  0.00  0.00    -0.260 OA
BRANCH  27  29
HETATM   29  O   UNK N   1      42.428  57.247  59.485  0.00  0.00    -0.323 OA
HETATM   30  C   UNK N   1      41.592  58.336  59.357  0.00  0.00     0.213 C 
ENDBRANCH  27  29
ENDBRANCH   1  27
BRANCH   7  31
HETATM   31  O   UNK N   1      47.256  52.964  60.407  0.00  0.00    -0.395 OA
HETATM   32  H   UNK N   1      48.231  52.930  60.589  0.00  0.00     0.210 HD
ENDBRANCH   7  31
TORSDOF 10
ENDMDL
MODEL 7
REMARK VINA RESULT:      -5.1     12.578     15.087
REMARK  10 active torsions:
REMARK  status: ('A' for Active; 'I' for Inactive)
REMARK    1  A    between atoms: C_2  and  O_3 
REMARK    2  A    between atoms: C_2  and  C_5 
REMARK    3  A    between atoms: C_8  and  O_9 
REMARK    4  A    between atoms: O_9  and  C_10 
REMARK    5  A    between atoms: C_12  and  C_22 
REMARK    6  A    between atoms: C_13  and  O_14 
REMARK    7  A    between atoms: C_16  and  O_17 
REMARK    8  A    between atoms: C_19  and  O_20 
REMARK    9  A    between atoms: C_22  and  O_23 
REMARK   10  A    between atoms: C_27  and  O_28 
ROOT
HETATM    1  C   UNK N   1      27.007  39.265  53.346  0.00  0.00     0.044 C 
HETATM    2  C   UNK N   1      27.936  38.727  54.171  0.00  0.00     0.151 C 
HETATM    3  O   UNK N   1      29.030  39.440  54.551  0.00  0.00    -0.331 OA
HETATM    4  C   UNK N   1      29.027  40.826  54.537  0.00  0.00     0.273 C 
HETATM    5  C   UNK N   1      28.580  41.291  53.135  0.00  0.00     0.056 C 
HETATM    6  C   UNK N   1      28.314  42.807  53.035  0.00  0.00     0.020 C 
HETATM    7  C   UNK N   1      26.938  42.928  53.713  0.00  0.00     0.123 C 
HETATM    8  C   UNK N   1      26.150  41.701  53.228  0.00  0.00     0.042 C 
HETATM    9  C   UNK N   1      27.215  40.667  52.789  0.00  0.00     0.038 C 
HETATM   10  C   UNK N   1      28.294  43.288  51.571  0.00  0.00     0.013 C 
ENDROOT
BRANCH   4  11
HETATM   11  O   UNK N   1      30.322  41.345  54.771  0.00  0.00    -0.328 OA
BRANCH  11  12
HETATM   12  C   UNK N   1      30.432  42.005  56.016  0.00  0.00     0.294 C 
HETATM   13  O   UNK N   1      29.193  42.615  56.355  0.00  0.00    -0.348 OA
HETATM   14  C   UNK N   1      29.272  43.241  57.627  0.00  0.00     0.179 C 
HETATM   15  C   UNK N   1      30.257  44.432  57.571  0.00  0.00     0.180 C 
HETATM   16  C   UNK N   1      31.639  43.899  57.149  0.00  0.00     0.183 C 
HETATM   17  C   UNK N   1      31.517  43.089  55.849  0.00  0.00     0.204 C 
BRANCH  14  18
HETATM   18  C   UNK N   1      27.862  43.690  58.040  0.00  0.00     0.198 C 
BRANCH  18  19
HETATM   19  O   UNK N   1      27.543  44.942  57.494  0.00  0.00    -0.398 OA
HETATM   20  H   UNK N   1      26.666  45.206  57.876  0.00  0.00     0.209 HD
ENDBRANCH  18  19
ENDBRANCH  14  18
BRANCH  15  21
HETATM   21  O   UNK N   1      30.342  45.047  58.831  0.00  0.00    -0.390 OA
HETATM   22  H   UNK N   1      29.435  45.386  59.047  0.00  0.00     0.210 HD
ENDBRANCH  15  21
BRANCH  16  23
HETATM   23  O   UNK N   1      32.568  44.944  57.006  0.00  0.00    -0.390 OA
HETATM   24  H   UNK N   1      32.070  45.749  56.702  0.00  0.00     0.210 HD
ENDBRANCH  16  23
BRANCH  17  25
HETATM   25  O   UNK N   1      32.761  42.506  55.552  0.00  0.00    -0.388 OA
HETATM   26  H   UNK N   1      33.347  42.652  56.340  0.00  0.00     0.210 HD
ENDBRANCH  17  25
ENDBRANCH  11  12
ENDBRANCH   4  11
BRANCH   1  27
HETATM   27  C   UNK N   1      25.790  38.496  52.976  0.00  0.00     0.291 C 
HETATM   28  O   UNK N   1      25.075  38.031  53.851  0.00  0.00    -0.260 OA
BRANCH  27  29
HETATM   29  O   UNK N   1      25.507  38.270  51.665  0.00  0.00    -0.323 OA
HETATM   30  C   UNK N   1      24.535  38.958  50.969  0.00  0.00     0.213 C 
ENDBRANCH  27  29
ENDBRANCH   1  27
BRANCH   7  31
HETATM   31  O   UNK N   1      26.262  44.129  53.450  0.00  0.00    -0.395 OA
HETATM   32  H   UNK N   1      26.899  44.709  52.958  0.00  0.00     0.210 HD
ENDBRANCH   7  31
TORSDOF 10
ENDMDL
MODEL 8
REMARK VINA RESULT:      -5.1     12.668     15.888
REMARK  10 active torsions:
REMARK  status: ('A' for Active; 'I' for Inactive)
REMARK    1  A    between atoms: C_2  and  O_3 
REMARK    2  A    between atoms: C_2  and  C_5 
REMARK    3  A    between atoms: C_8  and  O_9 
REMARK    4  A    between atoms: O_9  and  C_10 
REMARK    5  A    between atoms: C_12  and  C_22 
REMARK    6  A    between atoms: C_13  and  O_14 
REMARK    7  A    between atoms: C_16  and  O_17 
REMARK    8  A    between atoms: C_19  and  O_20 
REMARK    9  A    between atoms: C_22  and  O_23 
REMARK   10  A    between atoms: C_27  and  O_28 
ROOT
HETATM    1  C   UNK N   1      28.348  42.700  57.988  0.00  0.00     0.044 C 
HETATM    2  C   UNK N   1      27.773  43.882  58.309  0.00  0.00     0.151 C 
HETATM    3  O   UNK N   1      28.529  44.990  58.532  0.00  0.00    -0.331 OA
HETATM    4  C   UNK N   1      29.803  45.112  57.998  0.00  0.00     0.273 C 
HETATM    5  C   UNK N   1      30.611  43.857  58.391  0.00  0.00     0.056 C 
HETATM    6  C   UNK N   1      31.977  43.747  57.682  0.00  0.00     0.020 C 
HETATM    7  C   UNK N   1      31.563  43.263  56.282  0.00  0.00     0.123 C 
HETATM    8  C   UNK N   1      30.436  42.248  56.532  0.00  0.00     0.042 C 
HETATM    9  C   UNK N   1      29.867  42.591  57.929  0.00  0.00     0.038 C 
HETATM   10  C   UNK N   1      32.912  42.751  58.397  0.00  0.00     0.013 C 
ENDROOT
BRANCH   4  11
HETATM   11  O   UNK N   1      30.475  46.240  58.523  0.00  0.00    -0.328 OA
BRANCH  11  12
HETATM   12  C   UNK N   1      29.894  47.464  58.118  0.00  0.00     0.294 C 
HETATM   13  O   UNK N   1      30.768  48.145  57.227  0.00  0.00    -0.348 OA
HETATM   14  C   UNK N   1      30.178  49.354  56.771  0.00  0.00     0.179 C 
HETATM   15  C   UNK N   1      30.020  50.343  57.949  0.00  0.00     0.180 C 
HETATM   16  C   UNK N   1      29.132  49.684  59.021  0.00  0.00     0.183 C 
HETATM   17  C   UNK N   1      29.694  48.305  59.396  0.00  0.00     0.204 C 
BRANCH  14  18
HETATM   18  C   UNK N   1      31.058  49.936  55.654  0.00  0.00     0.198 C 
BRANCH  18  19
HETATM   19  O   UNK N   1      32.071  50.754  56.174  0.00  0.00    -0.398 OA
HETATM   20  H   UNK N   1      32.791  50.788  55.492  0.00  0.00     0.209 HD
ENDBRANCH  18  19
ENDBRANCH  14  18
BRANCH  15  21
HETATM   21  O   UNK N   1      29.429  51.536  57.500  0.00  0.00    -0.390 OA
HETATM   22  H   UNK N   1      29.612  52.224  58.190  0.00  0.00     0.210 HD
ENDBRANCH  15  21
BRANCH  16  23
HETATM   23  O   UNK N   1      29.007  50.503  60.156  0.00  0.00    -0.390 OA
HETATM   24  H   UNK N   1      29.044  49.915  60.957  0.00  0.00     0.210 HD
ENDBRANCH  16  23
BRANCH  17  25
HETATM   25  O   UNK N   1      28.803  47.668  60.276  0.00  0.00    -0.388 OA
HETATM   26  H   UNK N   1      28.533  46.814  59.850  0.00  0.00     0.210 HD
ENDBRANCH  17  25
ENDBRANCH  11  12
ENDBRANCH   4  11
BRANCH   1  27
HETATM   27  C   UNK N   1      27.511  41.507  57.697  0.00  0.00     0.291 C 
HETATM   28  O   UNK N   1      27.676  40.478  58.336  0.00  0.00    -0.260 OA
BRANCH  27  29
HETATM   29  O   UNK N   1      26.599  41.551  56.688  0.00  0.00    -0.323 OA
HETATM   30  C   UNK N   1      26.933  41.803  55.375  0.00  0.00     0.213 C 
ENDBRANCH  27  29
ENDBRANCH   1  27
BRANCH   7  31
HETATM   31  O   UNK N   1      32.607  42.717  55.521  0.00  0.00    -0.395 OA
HETATM   32  H   UNK N   1      32.381  42.888  54.569  0.00  0.00     0.210 HD
ENDBRANCH   7  31
TORSDOF 10
ENDMDL
MODEL 9
REMARK VINA RESULT:      -5.0     12.970     15.146
REMARK  10 active torsions:
REMARK  status: ('A' for Active; 'I' for Inactive)
REMARK    1  A    between atoms: C_2  and  O_3 
REMARK    2  A    between atoms: C_2  and  C_5 
REMARK    3  A    between atoms: C_8  and  O_9 
REMARK    4  A    between atoms: O_9  and  C_10 
REMARK    5  A    between atoms: C_12  and  C_22 
REMARK    6  A    between atoms: C_13  and  O_14 
REMARK    7  A    between atoms: C_16  and  O_17 
REMARK    8  A    between atoms: C_19  and  O_20 
REMARK    9  A    between atoms: C_22  and  O_23 
REMARK   10  A    between atoms: C_27  and  O_28 
ROOT
HETATM    1  C   UNK N   1      26.933  42.819  53.899  0.00  0.00     0.044 C 
HETATM    2  C   UNK N   1      26.308  43.289  55.003  0.00  0.00     0.151 C 
HETATM    3  O   UNK N   1      26.678  42.875  56.245  0.00  0.00    -0.331 OA
HETATM    4  C   UNK N   1      27.946  42.372  56.488  0.00  0.00     0.273 C 
HETATM    5  C   UNK N   1      28.217  41.241  55.473  0.00  0.00     0.056 C 
HETATM    6  C   UNK N   1      29.675  40.735  55.477  0.00  0.00     0.020 C 
HETATM    7  C   UNK N   1      30.394  41.851  54.700  0.00  0.00     0.123 C 
HETATM    8  C   UNK N   1      29.428  42.228  53.566  0.00  0.00     0.042 C 
HETATM    9  C   UNK N   1      28.028  41.769  54.040  0.00  0.00     0.038 C 
HETATM   10  C   UNK N   1      29.804  39.361  54.790  0.00  0.00     0.013 C 
ENDROOT
BRANCH   4  11
HETATM   11  O   UNK N   1      28.040  41.818  57.787  0.00  0.00    -0.328 OA
BRANCH  11  12
HETATM   12  C   UNK N   1      29.066  42.405  58.562  0.00  0.00     0.294 C 
HETATM   13  O   UNK N   1      29.776  43.360  57.785  0.00  0.00    -0.348 OA
HETATM   14  C   UNK N   1      30.780  43.995  58.563  0.00  0.00     0.179 C 
HETATM   15  C   UNK N   1      31.869  42.972  58.960  0.00  0.00     0.180 C 
HETATM   16  C   UNK N   1      31.201  41.840  59.765  0.00  0.00     0.183 C 
HETATM   17  C   UNK N   1      30.017  41.262  58.977  0.00  0.00     0.204 C 
BRANCH  14  18
HETATM   18  C   UNK N   1      31.365  45.161  57.751  0.00  0.00     0.198 C 
BRANCH  18  19
HETATM   19  O   UNK N   1      32.520  44.771  57.056  0.00  0.00    -0.398 OA
HETATM   20  H   UNK N   1      33.190  45.491  57.189  0.00  0.00     0.209 HD
ENDBRANCH  18  19
ENDBRANCH  14  18
BRANCH  15  21
HETATM   21  O   UNK N   1      32.858  43.597  59.738  0.00  0.00    -0.390 OA
HETATM   22  H   UNK N   1      32.724  43.292  60.672  0.00  0.00     0.210 HD
ENDBRANCH  15  21
BRANCH  16  23
HETATM   23  O   UNK N   1      32.126  40.834  60.095  0.00  0.00    -0.390 OA
HETATM   24  H   UNK N   1      32.870  40.883  59.438  0.00  0.00     0.210 HD
ENDBRANCH  16  23
BRANCH  17  25
HETATM   25  O   UNK N   1      29.345  40.324  59.780  0.00  0.00    -0.388 OA
HETATM   26  H   UNK N   1      29.000  39.617  59.175  0.00  0.00     0.210 HD
ENDBRANCH  17  25
ENDBRANCH  11  12
ENDBRANCH   4  11
BRANCH   1  27
HETATM   27  C   UNK N   1      26.556  43.315  52.549  0.00  0.00     0.291 C 
HETATM   28  O   UNK N   1      26.131  44.453  52.417  0.00  0.00    -0.260 OA
BRANCH  27  29
HETATM   29  O   UNK N   1      26.638  42.483  51.476  0.00  0.00    -0.323 OA
HETATM   30  C   UNK N   1      25.957  42.695  50.297  0.00  0.00     0.213 C 
ENDBRANCH  27  29
ENDBRANCH   1  27
BRANCH   7  31
HETATM   31  O   UNK N   1      31.664  41.501  54.218  0.00  0.00    -0.395 OA
HETATM   32  H   UNK N   1      31.541  41.223  53.273  0.00  0.00     0.210 HD
ENDBRANCH   7  31
TORSDOF 10
ENDMDL
