MODEL 1
REMARK VINA RESULT:      -6.1      0.000      0.000
REMARK  11 active torsions:
REMARK  status: ('A' for Active; 'I' for Inactive)
REMARK    1  A    between atoms: C_6  and  C_8 
REMARK    2  A    between atoms: C_10  and  O_11 
REMARK    3  A    between atoms: O_11  and  C_12 
REMARK    4  A    between atoms: C_14  and  C_24 
REMARK    5  A    between atoms: C_15  and  O_16 
REMARK    6  A    between atoms: C_18  and  O_19 
REMARK    7  A    between atoms: C_21  and  O_22 
REMARK    8  A    between atoms: C_24  and  O_25 
REMARK    9  A    between atoms: C_27  and  O_28 
REMARK   10  A    between atoms: C_33  and  O_34 
REMARK   11  A    between atoms: C_37  and  O_38 
ROOT
HETATM    1  C   UNK N   1      37.885  49.921  43.897  0.00  0.00     0.001 A 
HETATM    2  C   UNK N   1      38.437  49.146  44.925  0.00  0.00     0.054 A 
HETATM    3  C   UNK N   1      39.823  49.136  45.147  0.00  0.00     0.106 A 
HETATM    4  C   UNK N   1      40.656  49.954  44.330  0.00  0.00     0.099 A 
HETATM    5  C   UNK N   1      40.087  50.715  43.299  0.00  0.00     0.040 A 
HETATM    6  C   UNK N   1      38.713  50.695  43.081  0.00  0.00     0.017 A 
ENDROOT
BRANCH   3   7
HETATM    7  O   UNK N   1      40.301  48.335  46.145  0.00  0.00    -0.315 OA
BRANCH   7   8
HETATM    8  C   UNK N   1      40.343  46.950  46.126  0.00  0.00     0.298 C 
HETATM    9  O   UNK N   1      39.726  46.435  47.296  0.00  0.00    -0.348 OA
HETATM   10  C   UNK N   1      39.578  45.023  47.180  0.00  0.00     0.179 C 
HETATM   11  C   UNK N   1      40.971  44.330  47.135  0.00  0.00     0.180 C 
HETATM   12  C   UNK N   1      41.797  44.918  45.965  0.00  0.00     0.183 C 
HETATM   13  C   UNK N   1      41.808  46.462  46.043  0.00  0.00     0.205 C 
BRANCH  10  14
HETATM   14  C   UNK N   1      38.714  44.522  48.341  0.00  0.00     0.198 C 
BRANCH  14  15
HETATM   15  O   UNK N   1      39.085  45.167  49.529  0.00  0.00    -0.398 OA
HETATM   16  H   UNK N   1      39.311  44.448  50.173  0.00  0.00     0.209 HD
ENDBRANCH  14  15
ENDBRANCH  10  14
BRANCH  11  17
HETATM   17  O   UNK N   1      41.636  44.524  48.356  0.00  0.00    -0.390 OA
HETATM   18  H   UNK N   1      42.393  43.881  48.371  0.00  0.00     0.210 HD
ENDBRANCH  11  17
BRANCH  12  19
HETATM   19  O   UNK N   1      41.206  44.516  44.754  0.00  0.00    -0.390 OA
HETATM   20  H   UNK N   1      40.661  43.709  44.953  0.00  0.00     0.210 HD
ENDBRANCH  12  19
BRANCH  13  21
HETATM   21  O   UNK N   1      42.594  46.924  47.119  0.00  0.00    -0.388 OA
HETATM   22  H   UNK N   1      43.523  47.075  46.810  0.00  0.00     0.210 HD
ENDBRANCH  13  21
ENDBRANCH   7   8
ENDBRANCH   3   7
BRANCH   4  23
HETATM   23  O   UNK N   1      41.988  50.029  44.535  0.00  0.00    -0.358 OA
HETATM   24  H   UNK N   1      42.625  49.570  43.970  0.00  0.00     0.218 HD
ENDBRANCH   4  23
BRANCH   1  25
HETATM   25  C   UNK N   1      36.441  49.908  43.653  0.00  0.00     0.090 A 
HETATM   26  O   UNK N   1      35.739  51.011  43.867  0.00  0.00    -0.309 OA
HETATM   27  C   UNK N   1      34.422  51.070  43.695  0.00  0.00     0.095 A 
HETATM   28  C   UNK N   1      33.690  49.932  43.259  0.00  0.00     0.081 A 
HETATM   29  C   UNK N   1      33.773  52.277  43.957  0.00  0.00     0.075 A 
HETATM   30  C   UNK N   1      34.432  48.741  43.023  0.00  0.00     0.190 A 
HETATM   31  C   UNK N   1      32.272  50.057  43.093  0.00  0.00     0.085 A 
HETATM   32  O   UNK N   1      33.902  47.714  42.649  0.00  0.00    -0.287 OA
HETATM   33  C   UNK N   1      35.811  48.741  43.228  0.00  0.00     0.094 A 
HETATM   34  C   UNK N   1      31.654  51.285  43.365  0.00  0.00     0.074 A 
HETATM   35  C   UNK N   1      32.395  52.397  43.797  0.00  0.00     0.073 A 
BRANCH  31  36
HETATM   36  O   UNK N   1      31.466  49.050  42.683  0.00  0.00    -0.360 OA
HETATM   37  H   UNK N   1      31.688  48.116  42.647  0.00  0.00     0.217 HD
ENDBRANCH  31  36
BRANCH  35  38
HETATM   38  O   UNK N   1      31.814  53.596  44.067  0.00  0.00    -0.356 OA
HETATM   39  C   UNK N   1      31.425  54.026  45.319  0.00  0.00     0.210 C 
ENDBRANCH  35  38
ENDBRANCH   1  25
TORSDOF 11
ENDMDL
MODEL 2
REMARK VINA RESULT:      -5.8      6.905     13.680
REMARK  11 active torsions:
REMARK  status: ('A' for Active; 'I' for Inactive)
REMARK    1  A    between atoms: C_6  and  C_8 
REMARK    2  A    between atoms: C_10  and  O_11 
REMARK    3  A    between atoms: O_11  and  C_12 
REMARK    4  A    between atoms: C_14  and  C_24 
REMARK    5  A    between atoms: C_15  and  O_16 
REMARK    6  A    between atoms: C_18  and  O_19 
REMARK    7  A    between atoms: C_21  and  O_22 
REMARK    8  A    between atoms: C_24  and  O_25 
REMARK    9  A    between atoms: C_27  and  O_28 
REMARK   10  A    between atoms: C_33  and  O_34 
REMARK   11  A    between atoms: C_37  and  O_38 
ROOT
HETATM    1  C   UNK N   1      29.563  53.279  40.163  0.00  0.00     0.001 A 
HETATM    2  C   UNK N   1      28.303  53.814  40.458  0.00  0.00     0.054 A 
HETATM    3  C   UNK N   1      27.425  54.187  39.429  0.00  0.00     0.106 A 
HETATM    4  C   UNK N   1      27.825  53.981  38.076  0.00  0.00     0.099 A 
HETATM    5  C   UNK N   1      29.094  53.453  37.799  0.00  0.00     0.040 A 
HETATM    6  C   UNK N   1      29.958  53.110  38.835  0.00  0.00     0.017 A 
ENDROOT
BRANCH   3   7
HETATM    7  O   UNK N   1      26.224  54.732  39.785  0.00  0.00    -0.315 OA
BRANCH   7   8
HETATM    8  C   UNK N   1      25.963  56.082  39.957  0.00  0.00     0.298 C 
HETATM    9  O   UNK N   1      27.185  56.798  40.047  0.00  0.00    -0.348 OA
HETATM   10  C   UNK N   1      26.925  58.199  40.010  0.00  0.00     0.179 C 
HETATM   11  C   UNK N   1      26.122  58.638  41.268  0.00  0.00     0.180 C 
HETATM   12  C   UNK N   1      24.813  57.815  41.352  0.00  0.00     0.183 C 
HETATM   13  C   UNK N   1      25.125  56.305  41.237  0.00  0.00     0.205 C 
BRANCH  10  14
HETATM   14  C   UNK N   1      28.258  58.942  39.881  0.00  0.00     0.198 C 
BRANCH  14  15
HETATM   15  O   UNK N   1      29.236  58.316  40.665  0.00  0.00    -0.398 OA
HETATM   16  H   UNK N   1      28.915  57.391  40.818  0.00  0.00     0.209 HD
ENDBRANCH  14  15
ENDBRANCH  10  14
BRANCH  11  17
HETATM   17  O   UNK N   1      26.900  58.446  42.420  0.00  0.00    -0.390 OA
HETATM   18  H   UNK N   1      26.333  58.704  43.193  0.00  0.00     0.210 HD
ENDBRANCH  11  17
BRANCH  12  19
HETATM   19  O   UNK N   1      23.974  58.199  40.291  0.00  0.00    -0.390 OA
HETATM   20  H   UNK N   1      24.564  58.507  39.554  0.00  0.00     0.210 HD
ENDBRANCH  12  19
BRANCH  13  21
HETATM   21  O   UNK N   1      25.765  55.816  42.395  0.00  0.00    -0.388 OA
HETATM   22  H   UNK N   1      25.707  54.827  42.414  0.00  0.00     0.210 HD
ENDBRANCH  13  21
ENDBRANCH   7   8
ENDBRANCH   3   7
BRANCH   4  23
HETATM   23  O   UNK N   1      26.999  54.267  37.047  0.00  0.00    -0.358 OA
HETATM   24  H   UNK N   1      26.454  55.065  37.029  0.00  0.00     0.218 HD
ENDBRANCH   4  23
BRANCH   1  25
HETATM   25  C   UNK N   1      30.485  52.915  41.241  0.00  0.00     0.090 A 
HETATM   26  O   UNK N   1      30.852  53.838  42.118  0.00  0.00    -0.309 OA
HETATM   27  C   UNK N   1      31.706  53.593  43.106  0.00  0.00     0.095 A 
HETATM   28  C   UNK N   1      32.274  52.300  43.277  0.00  0.00     0.081 A 
HETATM   29  C   UNK N   1      32.035  54.636  43.972  0.00  0.00     0.075 A 
HETATM   30  C   UNK N   1      31.888  51.299  42.343  0.00  0.00     0.190 A 
HETATM   31  C   UNK N   1      33.189  52.097  44.361  0.00  0.00     0.085 A 
HETATM   32  O   UNK N   1      32.317  50.164  42.401  0.00  0.00    -0.287 OA
HETATM   33  C   UNK N   1      30.993  51.621  41.324  0.00  0.00     0.094 A 
HETATM   34  C   UNK N   1      33.496  53.168  45.211  0.00  0.00     0.074 A 
HETATM   35  C   UNK N   1      32.925  54.438  45.024  0.00  0.00     0.073 A 
BRANCH  31  36
HETATM   36  O   UNK N   1      33.795  50.917  44.629  0.00  0.00    -0.360 OA
HETATM   37  H   UNK N   1      34.307  50.699  45.412  0.00  0.00     0.217 HD
ENDBRANCH  31  36
BRANCH  35  38
HETATM   38  O   UNK N   1      33.211  55.489  45.837  0.00  0.00    -0.356 OA
HETATM   39  C   UNK N   1      34.217  56.409  45.622  0.00  0.00     0.210 C 
ENDBRANCH  35  38
ENDBRANCH   1  25
TORSDOF 11
ENDMDL
MODEL 3
REMARK VINA RESULT:      -5.8      6.704     13.372
REMARK  11 active torsions:
REMARK  status: ('A' for Active; 'I' for Inactive)
REMARK    1  A    between atoms: C_6  and  C_8 
REMARK    2  A    between atoms: C_10  and  O_11 
REMARK    3  A    between atoms: O_11  and  C_12 
REMARK    4  A    between atoms: C_14  and  C_24 
REMARK    5  A    between atoms: C_15  and  O_16 
REMARK    6  A    between atoms: C_18  and  O_19 
REMARK    7  A    between atoms: C_21  and  O_22 
REMARK    8  A    between atoms: C_24  and  O_25 
REMARK    9  A    between atoms: C_27  and  O_28 
REMARK   10  A    between atoms: C_33  and  O_34 
REMARK   11  A    between atoms: C_37  and  O_38 
ROOT
HETATM    1  C   UNK N   1      29.811  52.613  39.877  0.00  0.00     0.001 A 
HETATM    2  C   UNK N   1      30.152  53.676  39.029  0.00  0.00     0.054 A 
HETATM    3  C   UNK N   1      29.354  53.988  37.918  0.00  0.00     0.106 A 
HETATM    4  C   UNK N   1      28.172  53.225  37.684  0.00  0.00     0.099 A 
HETATM    5  C   UNK N   1      27.853  52.159  38.537  0.00  0.00     0.040 A 
HETATM    6  C   UNK N   1      28.669  51.853  39.622  0.00  0.00     0.017 A 
ENDROOT
BRANCH   3   7
HETATM    7  O   UNK N   1      29.759  55.015  37.113  0.00  0.00    -0.315 OA
BRANCH   7   8
HETATM    8  C   UNK N   1      29.583  56.366  37.370  0.00  0.00     0.298 C 
HETATM    9  O   UNK N   1      29.110  56.544  38.696  0.00  0.00    -0.348 OA
HETATM   10  C   UNK N   1      29.132  57.929  39.031  0.00  0.00     0.179 C 
HETATM   11  C   UNK N   1      28.124  58.720  38.148  0.00  0.00     0.180 C 
HETATM   12  C   UNK N   1      28.460  58.487  36.655  0.00  0.00     0.183 C 
HETATM   13  C   UNK N   1      28.577  56.973  36.364  0.00  0.00     0.205 C 
BRANCH  10  14
HETATM   14  C   UNK N   1      28.837  58.076  40.527  0.00  0.00     0.198 C 
BRANCH  14  15
HETATM   15  O   UNK N   1      28.519  59.408  40.825  0.00  0.00    -0.398 OA
HETATM   16  H   UNK N   1      29.303  59.775  41.310  0.00  0.00     0.209 HD
ENDBRANCH  14  15
ENDBRANCH  10  14
BRANCH  11  17
HETATM   17  O   UNK N   1      26.815  58.301  38.430  0.00  0.00    -0.390 OA
HETATM   18  H   UNK N   1      26.230  58.713  37.742  0.00  0.00     0.210 HD
ENDBRANCH  11  17
BRANCH  12  19
HETATM   19  O   UNK N   1      29.688  59.112  36.370  0.00  0.00    -0.390 OA
HETATM   20  H   UNK N   1      30.394  58.581  36.825  0.00  0.00     0.210 HD
ENDBRANCH  12  19
BRANCH  13  21
HETATM   21  O   UNK N   1      27.318  56.337  36.406  0.00  0.00    -0.388 OA
HETATM   22  H   UNK N   1      27.030  56.233  37.348  0.00  0.00     0.210 HD
ENDBRANCH  13  21
ENDBRANCH   7   8
ENDBRANCH   3   7
BRANCH   4  23
HETATM   23  O   UNK N   1      27.337  53.517  36.665  0.00  0.00    -0.358 OA
HETATM   24  H   UNK N   1      26.949  52.832  36.103  0.00  0.00     0.218 HD
ENDBRANCH   4  23
BRANCH   1  25
HETATM   25  C   UNK N   1      30.661  52.276  41.021  0.00  0.00     0.090 A 
HETATM   26  O   UNK N   1      31.009  53.230  41.872  0.00  0.00    -0.309 OA
HETATM   27  C   UNK N   1      31.799  53.009  42.917  0.00  0.00     0.095 A 
HETATM   28  C   UNK N   1      32.316  51.710  43.181  0.00  0.00     0.081 A 
HETATM   29  C   UNK N   1      32.115  54.083  43.749  0.00  0.00     0.075 A 
HETATM   30  C   UNK N   1      31.948  50.676  42.276  0.00  0.00     0.190 A 
HETATM   31  C   UNK N   1      33.163  51.534  44.323  0.00  0.00     0.085 A 
HETATM   32  O   UNK N   1      32.336  49.533  42.412  0.00  0.00    -0.287 OA
HETATM   33  C   UNK N   1      31.121  50.973  41.194  0.00  0.00     0.094 A 
HETATM   34  C   UNK N   1      33.458  52.635  45.137  0.00  0.00     0.074 A 
HETATM   35  C   UNK N   1      32.940  53.911  44.857  0.00  0.00     0.073 A 
BRANCH  31  36
HETATM   36  O   UNK N   1      33.715  50.350  44.681  0.00  0.00    -0.360 OA
HETATM   37  H   UNK N   1      34.642  50.107  44.619  0.00  0.00     0.217 HD
ENDBRANCH  31  36
BRANCH  35  38
HETATM   38  O   UNK N   1      33.215  54.993  45.634  0.00  0.00    -0.356 OA
HETATM   39  C   UNK N   1      33.930  56.101  45.228  0.00  0.00     0.210 C 
ENDBRANCH  35  38
ENDBRANCH   1  25
TORSDOF 11
ENDMDL
MODEL 4
REMARK VINA RESULT:      -5.8     17.256     19.445
REMARK  11 active torsions:
REMARK  status: ('A' for Active; 'I' for Inactive)
REMARK    1  A    between atoms: C_6  and  C_8 
REMARK    2  A    between atoms: C_10  and  O_11 
REMARK    3  A    between atoms: O_11  and  C_12 
REMARK    4  A    between atoms: C_14  and  C_24 
REMARK    5  A    between atoms: C_15  and  O_16 
REMARK    6  A    between atoms: C_18  and  O_19 
REMARK    7  A    between atoms: C_21  and  O_22 
REMARK    8  A    between atoms: C_24  and  O_25 
REMARK    9  A    between atoms: C_27  and  O_28 
REMARK   10  A    between atoms: C_33  and  O_34 
REMARK   11  A    between atoms: C_37  and  O_38 
ROOT
HETATM    1  C   UNK N   1      49.823  53.189  59.889  0.00  0.00     0.001 A 
HETATM    2  C   UNK N   1      50.644  53.138  58.755  0.00  0.00     0.054 A 
HETATM    3  C   UNK N   1      51.547  54.176  58.479  0.00  0.00     0.106 A 
HETATM    4  C   UNK N   1      51.638  55.269  59.390  0.00  0.00     0.099 A 
HETATM    5  C   UNK N   1      50.800  55.308  60.514  0.00  0.00     0.040 A 
HETATM    6  C   UNK N   1      49.896  54.278  60.758  0.00  0.00     0.017 A 
ENDROOT
BRANCH   3   7
HETATM    7  O   UNK N   1      52.297  54.080  57.341  0.00  0.00    -0.315 OA
BRANCH   7   8
HETATM    8  C   UNK N   1      52.018  54.693  56.130  0.00  0.00     0.298 C 
HETATM    9  O   UNK N   1      50.722  55.271  56.173  0.00  0.00    -0.348 OA
HETATM   10  C   UNK N   1      50.517  56.078  55.017  0.00  0.00     0.179 C 
HETATM   11  C   UNK N   1      50.510  55.200  53.733  0.00  0.00     0.180 C 
HETATM   12  C   UNK N   1      51.837  54.405  53.649  0.00  0.00     0.183 C 
HETATM   13  C   UNK N   1      52.098  53.663  54.979  0.00  0.00     0.205 C 
BRANCH  10  14
HETATM   14  C   UNK N   1      49.215  56.866  55.192  0.00  0.00     0.198 C 
BRANCH  14  15
HETATM   15  O   UNK N   1      48.293  56.112  55.930  0.00  0.00    -0.398 OA
HETATM   16  H   UNK N   1      48.140  55.281  55.412  0.00  0.00     0.209 HD
ENDBRANCH  14  15
ENDBRANCH  10  14
BRANCH  11  17
HETATM   17  O   UNK N   1      49.412  54.326  53.762  0.00  0.00    -0.390 OA
HETATM   18  H   UNK N   1      48.659  54.801  53.322  0.00  0.00     0.210 HD
ENDBRANCH  11  17
BRANCH  12  19
HETATM   19  O   UNK N   1      52.885  55.310  53.407  0.00  0.00    -0.390 OA
HETATM   20  H   UNK N   1      53.704  54.769  53.254  0.00  0.00     0.210 HD
ENDBRANCH  12  19
BRANCH  13  21
HETATM   21  O   UNK N   1      51.208  52.583  55.157  0.00  0.00    -0.388 OA
HETATM   22  H   UNK N   1      50.275  52.917  55.148  0.00  0.00     0.210 HD
ENDBRANCH  13  21
ENDBRANCH   7   8
ENDBRANCH   3   7
BRANCH   4  23
HETATM   23  O   UNK N   1      52.528  56.266  59.206  0.00  0.00    -0.358 OA
HETATM   24  H   UNK N   1      53.187  56.247  58.498  0.00  0.00     0.218 HD
ENDBRANCH   4  23
BRANCH   1  25
HETATM   25  C   UNK N   1      48.865  52.115  60.159  0.00  0.00     0.090 A 
HETATM   26  O   UNK N   1      47.629  52.427  60.523  0.00  0.00    -0.309 OA
HETATM   27  C   UNK N   1      46.711  51.510  60.812  0.00  0.00     0.095 A 
HETATM   28  C   UNK N   1      47.015  50.123  60.736  0.00  0.00     0.081 A 
HETATM   29  C   UNK N   1      45.441  51.941  61.196  0.00  0.00     0.075 A 
HETATM   30  C   UNK N   1      48.337  49.774  60.344  0.00  0.00     0.190 A 
HETATM   31  C   UNK N   1      45.984  49.182  61.060  0.00  0.00     0.085 A 
HETATM   32  O   UNK N   1      48.698  48.618  60.249  0.00  0.00    -0.287 OA
HETATM   33  C   UNK N   1      49.257  50.782  60.061  0.00  0.00     0.094 A 
HETATM   34  C   UNK N   1      44.720  49.651  61.441  0.00  0.00     0.074 A 
HETATM   35  C   UNK N   1      44.441  51.026  61.512  0.00  0.00     0.073 A 
BRANCH  31  36
HETATM   36  O   UNK N   1      46.147  47.838  61.025  0.00  0.00    -0.360 OA
HETATM   37  H   UNK N   1      45.657  47.214  60.483  0.00  0.00     0.217 HD
ENDBRANCH  31  36
BRANCH  35  38
HETATM   38  O   UNK N   1      43.221  51.501  61.880  0.00  0.00    -0.356 OA
HETATM   39  C   UNK N   1      42.095  50.729  62.078  0.00  0.00     0.210 C 
ENDBRANCH  35  38
ENDBRANCH   1  25
TORSDOF 11
ENDMDL
MODEL 5
REMARK VINA RESULT:      -5.8      6.564     12.943
REMARK  11 active torsions:
REMARK  status: ('A' for Active; 'I' for Inactive)
REMARK    1  A    between atoms: C_6  and  C_8 
REMARK    2  A    between atoms: C_10  and  O_11 
REMARK    3  A    between atoms: O_11  and  C_12 
REMARK    4  A    between atoms: C_14  and  C_24 
REMARK    5  A    between atoms: C_15  and  O_16 
REMARK    6  A    between atoms: C_18  and  O_19 
REMARK    7  A    between atoms: C_21  and  O_22 
REMARK    8  A    between atoms: C_24  and  O_25 
REMARK    9  A    between atoms: C_27  and  O_28 
REMARK   10  A    between atoms: C_33  and  O_34 
REMARK   11  A    between atoms: C_37  and  O_38 
ROOT
HETATM    1  C   UNK N   1      29.826  55.514  41.819  0.00  0.00     0.001 A 
HETATM    2  C   UNK N   1      29.124  54.949  40.746  0.00  0.00     0.054 A 
HETATM    3  C   UNK N   1      28.192  55.709  40.023  0.00  0.00     0.106 A 
HETATM    4  C   UNK N   1      27.995  57.076  40.378  0.00  0.00     0.099 A 
HETATM    5  C   UNK N   1      28.700  57.621  41.460  0.00  0.00     0.040 A 
HETATM    6  C   UNK N   1      29.605  56.844  42.178  0.00  0.00     0.017 A 
ENDROOT
BRANCH   3   7
HETATM    7  O   UNK N   1      27.517  55.089  39.009  0.00  0.00    -0.315 OA
BRANCH   7   8
HETATM    8  C   UNK N   1      26.680  53.992  39.141  0.00  0.00     0.298 C 
HETATM    9  O   UNK N   1      27.441  52.850  39.502  0.00  0.00    -0.348 OA
HETATM   10  C   UNK N   1      26.567  51.779  39.844  0.00  0.00     0.179 C 
HETATM   11  C   UNK N   1      25.749  51.324  38.601  0.00  0.00     0.180 C 
HETATM   12  C   UNK N   1      24.973  52.536  38.028  0.00  0.00     0.183 C 
HETATM   13  C   UNK N   1      25.933  53.729  37.812  0.00  0.00     0.205 C 
BRANCH  10  14
HETATM   14  C   UNK N   1      27.396  50.639  40.444  0.00  0.00     0.198 C 
BRANCH  14  15
HETATM   15  O   UNK N   1      26.757  49.412  40.225  0.00  0.00    -0.398 OA
HETATM   16  H   UNK N   1      27.478  48.735  40.157  0.00  0.00     0.209 HD
ENDBRANCH  14  15
ENDBRANCH  10  14
BRANCH  11  17
HETATM   17  O   UNK N   1      26.613  50.790  37.633  0.00  0.00    -0.390 OA
HETATM   18  H   UNK N   1      26.299  51.129  36.754  0.00  0.00     0.210 HD
ENDBRANCH  11  17
BRANCH  12  19
HETATM   19  O   UNK N   1      23.974  52.902  38.947  0.00  0.00    -0.390 OA
HETATM   20  H   UNK N   1      23.109  52.879  38.458  0.00  0.00     0.210 HD
ENDBRANCH  12  19
BRANCH  13  21
HETATM   21  O   UNK N   1      26.811  53.502  36.732  0.00  0.00    -0.388 OA
HETATM   22  H   UNK N   1      26.436  52.802  36.141  0.00  0.00     0.210 HD
ENDBRANCH  13  21
ENDBRANCH   7   8
ENDBRANCH   3   7
BRANCH   4  23
HETATM   23  O   UNK N   1      27.154  57.869  39.681  0.00  0.00    -0.358 OA
HETATM   24  H   UNK N   1      27.069  57.813  38.719  0.00  0.00     0.218 HD
ENDBRANCH   4  23
BRANCH   1  25
HETATM   25  C   UNK N   1      30.780  54.710  42.586  0.00  0.00     0.090 A 
HETATM   26  O   UNK N   1      30.935  53.429  42.285  0.00  0.00    -0.309 OA
HETATM   27  C   UNK N   1      31.759  52.628  42.953  0.00  0.00     0.095 A 
HETATM   28  C   UNK N   1      32.534  53.118  44.040  0.00  0.00     0.081 A 
HETATM   29  C   UNK N   1      31.843  51.290  42.564  0.00  0.00     0.075 A 
HETATM   30  C   UNK N   1      32.378  54.492  44.373  0.00  0.00     0.190 A 
HETATM   31  C   UNK N   1      33.404  52.205  44.721  0.00  0.00     0.085 A 
HETATM   32  O   UNK N   1      32.993  55.009  45.284  0.00  0.00    -0.287 OA
HETATM   33  C   UNK N   1      31.492  55.280  43.638  0.00  0.00     0.094 A 
HETATM   34  C   UNK N   1      33.464  50.870  44.303  0.00  0.00     0.074 A 
HETATM   35  C   UNK N   1      32.688  50.405  43.228  0.00  0.00     0.073 A 
BRANCH  31  36
HETATM   36  O   UNK N   1      34.191  52.549  45.768  0.00  0.00    -0.360 OA
HETATM   37  H   UNK N   1      33.905  52.937  46.599  0.00  0.00     0.217 HD
ENDBRANCH  31  36
BRANCH  35  38
HETATM   38  O   UNK N   1      32.731  49.113  42.807  0.00  0.00    -0.356 OA
HETATM   39  C   UNK N   1      31.798  48.514  41.986  0.00  0.00     0.210 C 
ENDBRANCH  35  38
ENDBRANCH   1  25
TORSDOF 11
ENDMDL
MODEL 6
REMARK VINA RESULT:      -5.7     17.364     18.967
REMARK  11 active torsions:
REMARK  status: ('A' for Active; 'I' for Inactive)
REMARK    1  A    between atoms: C_6  and  C_8 
REMARK    2  A    between atoms: C_10  and  O_11 
REMARK    3  A    between atoms: O_11  and  C_12 
REMARK    4  A    between atoms: C_14  and  C_24 
REMARK    5  A    between atoms: C_15  and  O_16 
REMARK    6  A    between atoms: C_18  and  O_19 
REMARK    7  A    between atoms: C_21  and  O_22 
REMARK    8  A    between atoms: C_24  and  O_25 
REMARK    9  A    between atoms: C_27  and  O_28 
REMARK   10  A    between atoms: C_33  and  O_34 
REMARK   11  A    between atoms: C_37  and  O_38 
ROOT
HETATM    1  C   UNK N   1      50.651  52.148  57.893  0.00  0.00     0.001 A 
HETATM    2  C   UNK N   1      49.753  52.240  58.965  0.00  0.00     0.054 A 
HETATM    3  C   UNK N   1      49.778  51.295  60.002  0.00  0.00     0.106 A 
HETATM    4  C   UNK N   1      50.755  50.257  59.963  0.00  0.00     0.099 A 
HETATM    5  C   UNK N   1      51.639  50.175  58.877  0.00  0.00     0.040 A 
HETATM    6  C   UNK N   1      51.584  51.110  57.848  0.00  0.00     0.017 A 
ENDROOT
BRANCH   3   7
HETATM    7  O   UNK N   1      48.855  51.423  61.001  0.00  0.00    -0.315 OA
BRANCH   7   8
HETATM    8  C   UNK N   1      47.529  51.027  60.938  0.00  0.00     0.298 C 
HETATM    9  O   UNK N   1      46.802  51.613  62.006  0.00  0.00    -0.348 OA
HETATM   10  C   UNK N   1      45.408  51.383  61.823  0.00  0.00     0.179 C 
HETATM   11  C   UNK N   1      45.089  49.863  61.923  0.00  0.00     0.180 C 
HETATM   12  C   UNK N   1      45.938  49.093  60.882  0.00  0.00     0.183 C 
HETATM   13  C   UNK N   1      47.428  49.485  61.015  0.00  0.00     0.205 C 
BRANCH  10  14
HETATM   14  C   UNK N   1      44.634  52.210  62.854  0.00  0.00     0.198 C 
BRANCH  14  15
HETATM   15  O   UNK N   1      45.310  52.205  64.081  0.00  0.00    -0.398 OA
HETATM   16  H   UNK N   1      45.678  51.290  64.188  0.00  0.00     0.209 HD
ENDBRANCH  14  15
ENDBRANCH  10  14
BRANCH  11  17
HETATM   17  O   UNK N   1      45.363  49.404  63.220  0.00  0.00    -0.390 OA
HETATM   18  H   UNK N   1      45.605  50.203  63.759  0.00  0.00     0.210 HD
ENDBRANCH  11  17
BRANCH  12  19
HETATM   19  O   UNK N   1      45.481  49.428  59.595  0.00  0.00    -0.390 OA
HETATM   20  H   UNK N   1      46.156  49.086  58.951  0.00  0.00     0.210 HD
ENDBRANCH  12  19
BRANCH  13  21
HETATM   21  O   UNK N   1      48.001  48.963  62.193  0.00  0.00    -0.388 OA
HETATM   22  H   UNK N   1      48.013  47.974  62.147  0.00  0.00     0.210 HD
ENDBRANCH  13  21
ENDBRANCH   7   8
ENDBRANCH   3   7
BRANCH   4  23
HETATM   23  O   UNK N   1      50.863  49.354  60.961  0.00  0.00    -0.358 OA
HETATM   24  H   UNK N   1      51.717  49.002  61.248  0.00  0.00     0.218 HD
ENDBRANCH   4  23
BRANCH   1  25
HETATM   25  C   UNK N   1      50.604  53.122  56.801  0.00  0.00     0.090 A 
HETATM   26  O   UNK N   1      49.880  54.222  56.946  0.00  0.00    -0.309 OA
HETATM   27  C   UNK N   1      49.765  55.139  55.991  0.00  0.00     0.095 A 
HETATM   28  C   UNK N   1      50.432  54.984  54.744  0.00  0.00     0.081 A 
HETATM   29  C   UNK N   1      48.970  56.259  56.239  0.00  0.00     0.075 A 
HETATM   30  C   UNK N   1      51.215  53.808  54.576  0.00  0.00     0.190 A 
HETATM   31  C   UNK N   1      50.269  56.006  53.754  0.00  0.00     0.085 A 
HETATM   32  O   UNK N   1      51.823  53.580  53.550  0.00  0.00    -0.287 OA
HETATM   33  C   UNK N   1      51.290  52.880  55.613  0.00  0.00     0.094 A 
HETATM   34  C   UNK N   1      49.464  57.117  54.038  0.00  0.00     0.074 A 
HETATM   35  C   UNK N   1      48.811  57.250  55.275  0.00  0.00     0.073 A 
BRANCH  31  36
HETATM   36  O   UNK N   1      50.851  55.975  52.532  0.00  0.00    -0.360 OA
HETATM   37  H   UNK N   1      51.584  56.518  52.231  0.00  0.00     0.217 HD
ENDBRANCH  31  36
BRANCH  35  38
HETATM   38  O   UNK N   1      48.025  58.320  55.569  0.00  0.00    -0.356 OA
HETATM   39  C   UNK N   1      47.582  58.655  56.832  0.00  0.00     0.210 C 
ENDBRANCH  35  38
ENDBRANCH   1  25
TORSDOF 11
ENDMDL
MODEL 7
REMARK VINA RESULT:      -5.6     17.224     19.193
REMARK  11 active torsions:
REMARK  status: ('A' for Active; 'I' for Inactive)
REMARK    1  A    between atoms: C_6  and  C_8 
REMARK    2  A    between atoms: C_10  and  O_11 
REMARK    3  A    between atoms: O_11  and  C_12 
REMARK    4  A    between atoms: C_14  and  C_24 
REMARK    5  A    between atoms: C_15  and  O_16 
REMARK    6  A    between atoms: C_18  and  O_19 
REMARK    7  A    between atoms: C_21  and  O_22 
REMARK    8  A    between atoms: C_24  and  O_25 
REMARK    9  A    between atoms: C_27  and  O_28 
REMARK   10  A    between atoms: C_33  and  O_34 
REMARK   11  A    between atoms: C_37  and  O_38 
ROOT
HETATM    1  C   UNK N   1      48.231  54.222  58.930  0.00  0.00     0.001 A 
HETATM    2  C   UNK N   1      48.670  53.415  59.988  0.00  0.00     0.054 A 
HETATM    3  C   UNK N   1      47.970  53.388  61.203  0.00  0.00     0.106 A 
HETATM    4  C   UNK N   1      46.785  54.171  61.333  0.00  0.00     0.099 A 
HETATM    5  C   UNK N   1      46.367  54.980  60.266  0.00  0.00     0.040 A 
HETATM    6  C   UNK N   1      47.088  55.009  59.076  0.00  0.00     0.017 A 
ENDROOT
BRANCH   3   7
HETATM    7  O   UNK N   1      48.468  52.604  62.206  0.00  0.00    -0.315 OA
BRANCH   7   8
HETATM    8  C   UNK N   1      48.204  51.257  62.392  0.00  0.00     0.298 C 
HETATM    9  O   UNK N   1      47.297  50.805  61.398  0.00  0.00    -0.348 OA
HETATM   10  C   UNK N   1      47.190  49.385  61.455  0.00  0.00     0.179 C 
HETATM   11  C   UNK N   1      46.548  48.940  62.800  0.00  0.00     0.180 C 
HETATM   12  C   UNK N   1      47.385  49.499  63.977  0.00  0.00     0.183 C 
HETATM   13  C   UNK N   1      47.607  51.019  63.798  0.00  0.00     0.205 C 
BRANCH  10  14
HETATM   14  C   UNK N   1      46.391  48.903  60.240  0.00  0.00     0.198 C 
BRANCH  14  15
HETATM   15  O   UNK N   1      45.271  49.723  60.045  0.00  0.00    -0.398 OA
HETATM   16  H   UNK N   1      45.613  50.565  59.649  0.00  0.00     0.209 HD
ENDBRANCH  14  15
ENDBRANCH  10  14
BRANCH  11  17
HETATM   17  O   UNK N   1      45.225  49.405  62.872  0.00  0.00    -0.390 OA
HETATM   18  H   UNK N   1      45.119  49.822  63.766  0.00  0.00     0.210 HD
ENDBRANCH  11  17
BRANCH  12  19
HETATM   19  O   UNK N   1      48.630  48.845  63.989  0.00  0.00    -0.390 OA
HETATM   20  H   UNK N   1      49.197  49.291  63.306  0.00  0.00     0.210 HD
ENDBRANCH  12  19
BRANCH  13  21
HETATM   21  O   UNK N   1      46.417  51.747  64.012  0.00  0.00    -0.388 OA
HETATM   22  H   UNK N   1      46.611  52.717  63.972  0.00  0.00     0.210 HD
ENDBRANCH  13  21
ENDBRANCH   7   8
ENDBRANCH   3   7
BRANCH   4  23
HETATM   23  O   UNK N   1      46.040  54.139  62.458  0.00  0.00    -0.358 OA
HETATM   24  H   UNK N   1      46.423  53.950  63.325  0.00  0.00     0.218 HD
ENDBRANCH   4  23
BRANCH   1  25
HETATM   25  C   UNK N   1      48.980  54.266  57.672  0.00  0.00     0.090 A 
HETATM   26  O   UNK N   1      48.822  55.302  56.860  0.00  0.00    -0.309 OA
HETATM   27  C   UNK N   1      49.444  55.401  55.690  0.00  0.00     0.095 A 
HETATM   28  C   UNK N   1      50.332  54.382  55.246  0.00  0.00     0.081 A 
HETATM   29  C   UNK N   1      49.202  56.528  54.904  0.00  0.00     0.075 A 
HETATM   30  C   UNK N   1      50.513  53.265  56.108  0.00  0.00     0.190 A 
HETATM   31  C   UNK N   1      50.973  54.545  53.975  0.00  0.00     0.085 A 
HETATM   32  O   UNK N   1      51.249  52.343  55.823  0.00  0.00    -0.287 OA
HETATM   33  C   UNK N   1      49.826  53.217  57.321  0.00  0.00     0.094 A 
HETATM   34  C   UNK N   1      50.707  55.690  53.213  0.00  0.00     0.074 A 
HETATM   35  C   UNK N   1      49.824  56.684  53.668  0.00  0.00     0.073 A 
BRANCH  31  36
HETATM   36  O   UNK N   1      51.838  53.650  53.443  0.00  0.00    -0.360 OA
HETATM   37  H   UNK N   1      51.626  52.772  53.116  0.00  0.00     0.217 HD
ENDBRANCH  31  36
BRANCH  35  38
HETATM   38  O   UNK N   1      49.552  57.801  52.943  0.00  0.00    -0.356 OA
HETATM   39  C   UNK N   1      48.668  58.793  53.315  0.00  0.00     0.210 C 
ENDBRANCH  35  38
ENDBRANCH   1  25
TORSDOF 11
ENDMDL
MODEL 8
REMARK VINA RESULT:      -5.6     13.565     17.165
REMARK  11 active torsions:
REMARK  status: ('A' for Active; 'I' for Inactive)
REMARK    1  A    between atoms: C_6  and  C_8 
REMARK    2  A    between atoms: C_10  and  O_11 
REMARK    3  A    between atoms: O_11  and  C_12 
REMARK    4  A    between atoms: C_14  and  C_24 
REMARK    5  A    between atoms: C_15  and  O_16 
REMARK    6  A    between atoms: C_18  and  O_19 
REMARK    7  A    between atoms: C_21  and  O_22 
REMARK    8  A    between atoms: C_24  and  O_25 
REMARK    9  A    between atoms: C_27  and  O_28 
REMARK   10  A    between atoms: C_33  and  O_34 
REMARK   11  A    between atoms: C_37  and  O_38 
ROOT
HETATM    1  C   UNK N   1      29.585  43.139  57.817  0.00  0.00     0.001 A 
HETATM    2  C   UNK N   1      30.035  44.413  57.443  0.00  0.00     0.054 A 
HETATM    3  C   UNK N   1      30.383  45.362  58.416  0.00  0.00     0.106 A 
HETATM    4  C   UNK N   1      30.302  44.998  59.792  0.00  0.00     0.099 A 
HETATM    5  C   UNK N   1      29.840  43.723  60.148  0.00  0.00     0.040 A 
HETATM    6  C   UNK N   1      29.480  42.803  59.168  0.00  0.00     0.017 A 
ENDROOT
BRANCH   3   7
HETATM    7  O   UNK N   1      30.783  46.596  57.986  0.00  0.00    -0.315 OA
BRANCH   7   8
HETATM    8  C   UNK N   1      29.961  47.579  57.458  0.00  0.00     0.298 C 
HETATM    9  O   UNK N   1      30.749  48.668  57.002  0.00  0.00    -0.348 OA
HETATM   10  C   UNK N   1      29.932  49.579  56.272  0.00  0.00     0.179 C 
HETATM   11  C   UNK N   1      28.871  50.229  57.206  0.00  0.00     0.180 C 
HETATM   12  C   UNK N   1      28.029  49.116  57.877  0.00  0.00     0.183 C 
HETATM   13  C   UNK N   1      28.957  48.066  58.529  0.00  0.00     0.205 C 
BRANCH  10  14
HETATM   14  C   UNK N   1      30.835  50.619  55.601  0.00  0.00     0.198 C 
BRANCH  14  15
HETATM   15  O   UNK N   1      32.039  50.738  56.308  0.00  0.00    -0.398 OA
HETATM   16  H   UNK N   1      32.252  49.829  56.642  0.00  0.00     0.209 HD
ENDBRANCH  14  15
ENDBRANCH  10  14
BRANCH  11  17
HETATM   17  O   UNK N   1      29.511  51.016  58.176  0.00  0.00    -0.390 OA
HETATM   18  H   UNK N   1      29.040  50.849  59.033  0.00  0.00     0.210 HD
ENDBRANCH  11  17
BRANCH  12  19
HETATM   19  O   UNK N   1      27.243  48.495  56.891  0.00  0.00    -0.390 OA
HETATM   20  H   UNK N   1      27.655  47.609  56.710  0.00  0.00     0.210 HD
ENDBRANCH  12  19
BRANCH  13  21
HETATM   21  O   UNK N   1      29.597  48.578  59.678  0.00  0.00    -0.388 OA
HETATM   22  H   UNK N   1      30.552  48.749  59.477  0.00  0.00     0.210 HD
ENDBRANCH  13  21
ENDBRANCH   7   8
ENDBRANCH   3   7
BRANCH   4  23
HETATM   23  O   UNK N   1      30.679  45.850  60.769  0.00  0.00    -0.358 OA
HETATM   24  H   UNK N   1      30.754  46.803  60.622  0.00  0.00     0.218 HD
ENDBRANCH   4  23
BRANCH   1  25
HETATM   25  C   UNK N   1      29.199  42.161  56.799  0.00  0.00     0.090 A 
HETATM   26  O   UNK N   1      29.435  40.875  57.014  0.00  0.00    -0.309 OA
HETATM   27  C   UNK N   1      29.139  39.931  56.127  0.00  0.00     0.095 A 
HETATM   28  C   UNK N   1      28.539  40.261  54.881  0.00  0.00     0.081 A 
HETATM   29  C   UNK N   1      29.436  38.605  56.446  0.00  0.00     0.075 A 
HETATM   30  C   UNK N   1      28.279  41.638  54.636  0.00  0.00     0.190 A 
HETATM   31  C   UNK N   1      28.245  39.198  53.965  0.00  0.00     0.085 A 
HETATM   32  O   UNK N   1      27.770  42.025  53.604  0.00  0.00    -0.287 OA
HETATM   33  C   UNK N   1      28.619  42.582  55.604  0.00  0.00     0.094 A 
HETATM   34  C   UNK N   1      28.556  37.880  54.319  0.00  0.00     0.074 A 
HETATM   35  C   UNK N   1      29.151  37.574  55.555  0.00  0.00     0.073 A 
BRANCH  31  36
HETATM   36  O   UNK N   1      27.674  39.382  52.751  0.00  0.00    -0.360 OA
HETATM   37  H   UNK N   1      27.199  40.162  52.452  0.00  0.00     0.217 HD
ENDBRANCH  31  36
BRANCH  35  38
HETATM   38  O   UNK N   1      29.461  36.301  55.916  0.00  0.00    -0.356 OA
HETATM   39  C   UNK N   1      30.587  35.613  55.512  0.00  0.00     0.210 C 
ENDBRANCH  35  38
ENDBRANCH   1  25
TORSDOF 11
ENDMDL
MODEL 9
REMARK VINA RESULT:      -5.6     13.427     16.574
REMARK  11 active torsions:
REMARK  status: ('A' for Active; 'I' for Inactive)
REMARK    1  A    between atoms: C_6  and  C_8 
REMARK    2  A    between atoms: C_10  and  O_11 
REMARK    3  A    between atoms: O_11  and  C_12 
REMARK    4  A    between atoms: C_14  and  C_24 
REMARK    5  A    between atoms: C_15  and  O_16 
REMARK    6  A    between atoms: C_18  and  O_19 
REMARK    7  A    between atoms: C_21  and  O_22 
REMARK    8  A    between atoms: C_24  and  O_25 
REMARK    9  A    between atoms: C_27  and  O_28 
REMARK   10  A    between atoms: C_33  and  O_34 
REMARK   11  A    between atoms: C_37  and  O_38 
ROOT
HETATM    1  C   UNK N   1      29.630  43.487  58.045  0.00  0.00     0.001 A 
HETATM    2  C   UNK N   1      30.065  44.761  57.657  0.00  0.00     0.054 A 
HETATM    3  C   UNK N   1      30.338  45.747  58.618  0.00  0.00     0.106 A 
HETATM    4  C   UNK N   1      30.195  45.419  59.998  0.00  0.00     0.099 A 
HETATM    5  C   UNK N   1      29.748  44.143  60.367  0.00  0.00     0.040 A 
HETATM    6  C   UNK N   1      29.463  43.186  59.398  0.00  0.00     0.017 A 
ENDROOT
BRANCH   3   7
HETATM    7  O   UNK N   1      30.728  46.978  58.173  0.00  0.00    -0.315 OA
BRANCH   7   8
HETATM    8  C   UNK N   1      29.915  47.914  57.554  0.00  0.00     0.298 C 
HETATM    9  O   UNK N   1      30.707  48.979  57.051  0.00  0.00    -0.348 OA
HETATM   10  C   UNK N   1      29.907  49.829  56.235  0.00  0.00     0.179 C 
HETATM   11  C   UNK N   1      28.810  50.529  57.088  0.00  0.00     0.180 C 
HETATM   12  C   UNK N   1      27.956  49.454  57.806  0.00  0.00     0.183 C 
HETATM   13  C   UNK N   1      28.872  48.461  58.557  0.00  0.00     0.205 C 
BRANCH  10  14
HETATM   14  C   UNK N   1      30.821  50.833  55.525  0.00  0.00     0.198 C 
BRANCH  14  15
HETATM   15  O   UNK N   1      32.062  50.894  56.173  0.00  0.00    -0.398 OA
HETATM   16  H   UNK N   1      31.892  51.326  57.050  0.00  0.00     0.209 HD
ENDBRANCH  14  15
ENDBRANCH  10  14
BRANCH  11  17
HETATM   17  O   UNK N   1      29.410  51.387  58.023  0.00  0.00    -0.390 OA
HETATM   18  H   UNK N   1      29.538  52.259  57.567  0.00  0.00     0.210 HD
ENDBRANCH  11  17
BRANCH  12  19
HETATM   19  O   UNK N   1      27.209  48.759  56.839  0.00  0.00    -0.390 OA
HETATM   20  H   UNK N   1      27.625  48.953  55.958  0.00  0.00     0.210 HD
ENDBRANCH  12  19
BRANCH  13  21
HETATM   21  O   UNK N   1      29.469  49.056  59.688  0.00  0.00    -0.388 OA
HETATM   22  H   UNK N   1      30.069  48.403  60.129  0.00  0.00     0.210 HD
ENDBRANCH  13  21
ENDBRANCH   7   8
ENDBRANCH   3   7
BRANCH   4  23
HETATM   23  O   UNK N   1      30.498  46.309  60.968  0.00  0.00    -0.358 OA
HETATM   24  H   UNK N   1      29.900  46.494  61.704  0.00  0.00     0.218 HD
ENDBRANCH   4  23
BRANCH   1  25
HETATM   25  C   UNK N   1      29.323  42.471  57.037  0.00  0.00     0.090 A 
HETATM   26  O   UNK N   1      28.838  42.848  55.863  0.00  0.00    -0.309 OA
HETATM   27  C   UNK N   1      28.509  41.984  54.909  0.00  0.00     0.095 A 
HETATM   28  C   UNK N   1      28.670  40.585  55.103  0.00  0.00     0.081 A 
HETATM   29  C   UNK N   1      27.997  42.484  53.710  0.00  0.00     0.075 A 
HETATM   30  C   UNK N   1      29.192  40.165  56.357  0.00  0.00     0.190 A 
HETATM   31  C   UNK N   1      28.297  39.703  54.036  0.00  0.00     0.085 A 
HETATM   32  O   UNK N   1      29.367  38.993  56.623  0.00  0.00    -0.287 OA
HETATM   33  C   UNK N   1      29.512  41.120  57.321  0.00  0.00     0.094 A 
HETATM   34  C   UNK N   1      27.787  40.239  52.847  0.00  0.00     0.074 A 
HETATM   35  C   UNK N   1      27.633  41.625  52.676  0.00  0.00     0.073 A 
BRANCH  31  36
HETATM   36  O   UNK N   1      28.403  38.355  54.097  0.00  0.00    -0.360 OA
HETATM   37  H   UNK N   1      28.920  37.848  54.729  0.00  0.00     0.217 HD
ENDBRANCH  31  36
BRANCH  35  38
HETATM   38  O   UNK N   1      27.139  42.165  51.530  0.00  0.00    -0.356 OA
HETATM   39  C   UNK N   1      26.504  41.459  50.530  0.00  0.00     0.210 C 
ENDBRANCH  35  38
ENDBRANCH   1  25
TORSDOF 11
ENDMDL
