MODEL 1
REMARK VINA RESULT:      -7.6      0.000      0.000
REMARK  4 active torsions:
REMARK  status: ('A' for Active; 'I' for Inactive)
REMARK    1  A    between atoms: C_4  and  C_9 
REMARK    2  A    between atoms: C_9  and  C_10 
REMARK    3  A    between atoms: C_12  and  O_13 
REMARK    4  A    between atoms: C_16  and  O_18 
ROOT
HETATM    1  C   UNK N   1      41.263  43.854  50.449  0.00  0.00    -0.047 A 
HETATM    2  C   UNK N   1      40.226  43.211  51.143  0.00  0.00     0.044 A 
HETATM    3  C   UNK N   1      40.020  43.468  52.505  0.00  0.00     0.068 A 
HETATM    4  C   UNK N   1      40.839  44.390  53.174  0.00  0.00     0.073 A 
HETATM    5  C   UNK N   1      41.867  45.043  52.490  0.00  0.00     0.068 A 
HETATM    6  C   UNK N   1      42.088  44.765  51.135  0.00  0.00     0.044 A 
ENDROOT
BRANCH   1   7
HETATM    7  C   UNK N   1      41.515  43.545  48.991  0.00  0.00     0.103 C 
BRANCH   7   8
HETATM    8  C   UNK N   1      41.128  44.689  48.096  0.00  0.00     0.061 A 
HETATM    9  C   UNK N   1      39.887  44.737  47.450  0.00  0.00     0.087 A 
HETATM   10  C   UNK N   1      39.593  45.839  46.641  0.00  0.00     0.176 A 
HETATM   11  O   UNK N   1      38.526  45.907  46.059  0.00  0.00    -0.288 OA
HETATM   12  C   UNK N   1      40.534  46.863  46.510  0.00  0.00     0.087 A 
HETATM   13  C   UNK N   1      41.751  46.754  47.192  0.00  0.00     0.053 A 
HETATM   14  O   UNK N   1      42.000  45.685  47.941  0.00  0.00    -0.319 OA
HETATM   15  C   UNK N   1      42.791  47.827  47.107  0.00  0.00     0.077 C 
ENDBRANCH   7   8
ENDBRANCH   1   7
BRANCH   3  16
HETATM   16  O   UNK N   1      39.038  42.821  53.165  0.00  0.00    -0.361 OA
HETATM   17  H   UNK N   1      38.989  41.854  53.183  0.00  0.00     0.217 HD
ENDBRANCH   3  16
BRANCH   5  18
HETATM   18  O   UNK N   1      42.640  45.937  53.141  0.00  0.00    -0.361 OA
HETATM   19  H   UNK N   1      43.224  45.670  53.865  0.00  0.00     0.217 HD
ENDBRANCH   5  18
TORSDOF 4
ENDMDL
MODEL 2
REMARK VINA RESULT:      -7.5      0.064      2.014
REMARK  4 active torsions:
REMARK  status: ('A' for Active; 'I' for Inactive)
REMARK    1  A    between atoms: C_4  and  C_9 
REMARK    2  A    between atoms: C_9  and  C_10 
REMARK    3  A    between atoms: C_12  and  O_13 
REMARK    4  A    between atoms: C_16  and  O_18 
ROOT
HETATM    1  C   UNK N   1      41.274  43.791  50.453  0.00  0.00    -0.047 A 
HETATM    2  C   UNK N   1      42.090  44.707  51.137  0.00  0.00     0.044 A 
HETATM    3  C   UNK N   1      41.847  45.002  52.485  0.00  0.00     0.068 A 
HETATM    4  C   UNK N   1      40.798  44.363  53.162  0.00  0.00     0.073 A 
HETATM    5  C   UNK N   1      39.987  43.442  52.494  0.00  0.00     0.068 A 
HETATM    6  C   UNK N   1      40.214  43.168  51.140  0.00  0.00     0.044 A 
ENDROOT
BRANCH   1   7
HETATM    7  C   UNK N   1      41.507  43.503  48.988  0.00  0.00     0.103 C 
BRANCH   7   8
HETATM    8  C   UNK N   1      41.132  44.668  48.116  0.00  0.00     0.061 A 
HETATM    9  C   UNK N   1      39.906  44.722  47.440  0.00  0.00     0.087 A 
HETATM   10  C   UNK N   1      39.621  45.844  46.656  0.00  0.00     0.176 A 
HETATM   11  O   UNK N   1      38.569  45.918  46.049  0.00  0.00    -0.288 OA
HETATM   12  C   UNK N   1      40.554  46.881  46.578  0.00  0.00     0.087 A 
HETATM   13  C   UNK N   1      41.755  46.764  47.287  0.00  0.00     0.053 A 
HETATM   14  O   UNK N   1      41.996  45.676  48.012  0.00  0.00    -0.319 OA
HETATM   15  C   UNK N   1      42.785  47.849  47.259  0.00  0.00     0.077 C 
ENDBRANCH   7   8
ENDBRANCH   1   7
BRANCH   3  16
HETATM   16  O   UNK N   1      42.620  45.905  53.120  0.00  0.00    -0.361 OA
HETATM   17  H   UNK N   1      43.574  45.773  53.225  0.00  0.00     0.217 HD
ENDBRANCH   3  16
BRANCH   5  18
HETATM   18  O   UNK N   1      38.988  42.825  53.160  0.00  0.00    -0.361 OA
HETATM   19  H   UNK N   1      38.081  43.160  53.137  0.00  0.00     0.217 HD
ENDBRANCH   5  18
TORSDOF 4
ENDMDL
MODEL 3
REMARK VINA RESULT:      -7.1      1.823      6.100
REMARK  4 active torsions:
REMARK  status: ('A' for Active; 'I' for Inactive)
REMARK    1  A    between atoms: C_4  and  C_9 
REMARK    2  A    between atoms: C_9  and  C_10 
REMARK    3  A    between atoms: C_12  and  O_13 
REMARK    4  A    between atoms: C_16  and  O_18 
ROOT
HETATM    1  C   UNK N   1      40.539  44.686  48.058  0.00  0.00    -0.047 A 
HETATM    2  C   UNK N   1      40.609  45.473  46.897  0.00  0.00     0.044 A 
HETATM    3  C   UNK N   1      41.458  45.107  45.844  0.00  0.00     0.068 A 
HETATM    4  C   UNK N   1      42.224  43.935  45.939  0.00  0.00     0.073 A 
HETATM    5  C   UNK N   1      42.154  43.140  47.085  0.00  0.00     0.068 A 
HETATM    6  C   UNK N   1      41.325  43.521  48.147  0.00  0.00     0.044 A 
ENDROOT
BRANCH   1   7
HETATM    7  C   UNK N   1      39.657  45.102  49.213  0.00  0.00     0.103 C 
BRANCH   7   8
HETATM    8  C   UNK N   1      40.293  44.812  50.543  0.00  0.00     0.061 A 
HETATM    9  C   UNK N   1      41.440  45.488  50.978  0.00  0.00     0.087 A 
HETATM   10  C   UNK N   1      41.969  45.172  52.234  0.00  0.00     0.176 A 
HETATM   11  O   UNK N   1      42.969  45.735  52.638  0.00  0.00    -0.288 OA
HETATM   12  C   UNK N   1      41.336  44.208  53.021  0.00  0.00     0.087 A 
HETATM   13  C   UNK N   1      40.188  43.578  52.527  0.00  0.00     0.053 A 
HETATM   14  O   UNK N   1      39.723  43.895  51.323  0.00  0.00    -0.319 OA
HETATM   15  C   UNK N   1      39.455  42.551  53.330  0.00  0.00     0.077 C 
ENDBRANCH   7   8
ENDBRANCH   1   7
BRANCH   3  16
HETATM   16  O   UNK N   1      41.536  45.887  44.747  0.00  0.00    -0.361 OA
HETATM   17  H   UNK N   1      41.106  45.640  43.916  0.00  0.00     0.217 HD
ENDBRANCH   3  16
BRANCH   5  18
HETATM   18  O   UNK N   1      42.887  42.010  47.159  0.00  0.00    -0.361 OA
HETATM   19  H   UNK N   1      43.237  41.686  48.002  0.00  0.00     0.217 HD
ENDBRANCH   5  18
TORSDOF 4
ENDMDL
MODEL 4
REMARK VINA RESULT:      -7.0      2.513      5.884
REMARK  4 active torsions:
REMARK  status: ('A' for Active; 'I' for Inactive)
REMARK    1  A    between atoms: C_4  and  C_9 
REMARK    2  A    between atoms: C_9  and  C_10 
REMARK    3  A    between atoms: C_12  and  O_13 
REMARK    4  A    between atoms: C_16  and  O_18 
ROOT
HETATM    1  C   UNK N   1      41.753  43.120  47.252  0.00  0.00    -0.047 A 
HETATM    2  C   UNK N   1      41.323  44.349  46.725  0.00  0.00     0.044 A 
HETATM    3  C   UNK N   1      41.657  44.712  45.414  0.00  0.00     0.068 A 
HETATM    4  C   UNK N   1      42.404  43.834  44.614  0.00  0.00     0.073 A 
HETATM    5  C   UNK N   1      42.827  42.605  45.126  0.00  0.00     0.068 A 
HETATM    6  C   UNK N   1      42.515  42.255  46.445  0.00  0.00     0.044 A 
ENDROOT
BRANCH   1   7
HETATM    7  C   UNK N   1      41.431  42.746  48.681  0.00  0.00     0.103 C 
BRANCH   7   8
HETATM    8  C   UNK N   1      41.710  43.871  49.637  0.00  0.00     0.061 A 
HETATM    9  C   UNK N   1      41.651  43.695  51.025  0.00  0.00     0.087 A 
HETATM   10  C   UNK N   1      41.935  44.786  51.853  0.00  0.00     0.176 A 
HETATM   11  O   UNK N   1      41.885  44.668  53.063  0.00  0.00    -0.288 OA
HETATM   12  C   UNK N   1      42.279  46.011  51.277  0.00  0.00     0.087 A 
HETATM   13  C   UNK N   1      42.326  46.114  49.882  0.00  0.00     0.053 A 
HETATM   14  O   UNK N   1      42.037  45.058  49.128  0.00  0.00    -0.319 OA
HETATM   15  C   UNK N   1      42.707  47.393  49.207  0.00  0.00     0.077 C 
ENDBRANCH   7   8
ENDBRANCH   1   7
BRANCH   3  16
HETATM   16  O   UNK N   1      41.262  45.908  44.931  0.00  0.00    -0.361 OA
HETATM   17  H   UNK N   1      40.531  45.984  44.301  0.00  0.00     0.217 HD
ENDBRANCH   3  16
BRANCH   5  18
HETATM   18  O   UNK N   1      43.535  41.764  44.342  0.00  0.00    -0.361 OA
HETATM   19  H   UNK N   1      43.102  41.082  43.810  0.00  0.00     0.217 HD
ENDBRANCH   5  18
TORSDOF 4
ENDMDL
MODEL 5
REMARK VINA RESULT:      -7.0      0.996      6.149
REMARK  4 active torsions:
REMARK  status: ('A' for Active; 'I' for Inactive)
REMARK    1  A    between atoms: C_4  and  C_9 
REMARK    2  A    between atoms: C_9  and  C_10 
REMARK    3  A    between atoms: C_12  and  O_13 
REMARK    4  A    between atoms: C_16  and  O_18 
ROOT
HETATM    1  C   UNK N   1      40.862  44.814  48.370  0.00  0.00    -0.047 A 
HETATM    2  C   UNK N   1      41.689  45.948  48.421  0.00  0.00     0.044 A 
HETATM    3  C   UNK N   1      41.402  47.069  47.631  0.00  0.00     0.068 A 
HETATM    4  C   UNK N   1      40.270  47.068  46.802  0.00  0.00     0.073 A 
HETATM    5  C   UNK N   1      39.435  45.949  46.753  0.00  0.00     0.068 A 
HETATM    6  C   UNK N   1      39.738  44.820  47.523  0.00  0.00     0.044 A 
ENDROOT
BRANCH   1   7
HETATM    7  C   UNK N   1      41.194  43.587  49.189  0.00  0.00     0.103 C 
BRANCH   7   8
HETATM    8  C   UNK N   1      41.138  43.861  50.665  0.00  0.00     0.061 A 
HETATM    9  C   UNK N   1      41.942  44.836  51.269  0.00  0.00     0.087 A 
HETATM   10  C   UNK N   1      41.827  45.043  52.647  0.00  0.00     0.176 A 
HETATM   11  O   UNK N   1      42.517  45.877  53.203  0.00  0.00    -0.288 OA
HETATM   12  C   UNK N   1      40.910  44.285  53.379  0.00  0.00     0.087 A 
HETATM   13  C   UNK N   1      40.132  43.333  52.710  0.00  0.00     0.053 A 
HETATM   14  O   UNK N   1      40.279  43.156  51.401  0.00  0.00    -0.319 OA
HETATM   15  C   UNK N   1      39.119  42.505  53.435  0.00  0.00     0.077 C 
ENDBRANCH   7   8
ENDBRANCH   1   7
BRANCH   3  16
HETATM   16  O   UNK N   1      42.221  48.139  47.668  0.00  0.00    -0.361 OA
HETATM   17  H   UNK N   1      41.920  49.018  47.396  0.00  0.00     0.217 HD
ENDBRANCH   3  16
BRANCH   5  18
HETATM   18  O   UNK N   1      38.342  45.966  45.961  0.00  0.00    -0.361 OA
HETATM   19  H   UNK N   1      38.402  45.791  45.011  0.00  0.00     0.217 HD
ENDBRANCH   5  18
TORSDOF 4
ENDMDL
MODEL 6
REMARK VINA RESULT:      -7.0      1.006      5.819
REMARK  4 active torsions:
REMARK  status: ('A' for Active; 'I' for Inactive)
REMARK    1  A    between atoms: C_4  and  C_9 
REMARK    2  A    between atoms: C_9  and  C_10 
REMARK    3  A    between atoms: C_12  and  O_13 
REMARK    4  A    between atoms: C_16  and  O_18 
ROOT
HETATM    1  C   UNK N   1      40.937  44.809  48.379  0.00  0.00    -0.047 A 
HETATM    2  C   UNK N   1      39.783  44.816  47.578  0.00  0.00     0.044 A 
HETATM    3  C   UNK N   1      39.444  45.955  46.837  0.00  0.00     0.068 A 
HETATM    4  C   UNK N   1      40.272  47.086  46.875  0.00  0.00     0.073 A 
HETATM    5  C   UNK N   1      41.427  47.086  47.660  0.00  0.00     0.068 A 
HETATM    6  C   UNK N   1      41.752  45.957  48.421  0.00  0.00     0.044 A 
ENDROOT
BRANCH   1   7
HETATM    7  C   UNK N   1      41.282  43.597  49.214  0.00  0.00     0.103 C 
BRANCH   7   8
HETATM    8  C   UNK N   1      41.193  43.881  50.687  0.00  0.00     0.061 A 
HETATM    9  C   UNK N   1      41.972  44.872  51.299  0.00  0.00     0.087 A 
HETATM   10  C   UNK N   1      41.826  45.087  52.673  0.00  0.00     0.176 A 
HETATM   11  O   UNK N   1      42.494  45.935  53.236  0.00  0.00    -0.288 OA
HETATM   12  C   UNK N   1      40.904  44.323  53.392  0.00  0.00     0.087 A 
HETATM   13  C   UNK N   1      40.153  43.356  52.715  0.00  0.00     0.053 A 
HETATM   14  O   UNK N   1      40.329  43.171  51.411  0.00  0.00    -0.319 OA
HETATM   15  C   UNK N   1      39.137  42.519  53.426  0.00  0.00     0.077 C 
ENDBRANCH   7   8
ENDBRANCH   1   7
BRANCH   3  16
HETATM   16  O   UNK N   1      38.318  45.957  46.095  0.00  0.00    -0.361 OA
HETATM   17  H   UNK N   1      37.492  45.572  46.423  0.00  0.00     0.217 HD
ENDBRANCH   3  16
BRANCH   5  18
HETATM   18  O   UNK N   1      42.222  48.176  47.678  0.00  0.00    -0.361 OA
HETATM   19  H   UNK N   1      41.869  49.058  47.863  0.00  0.00     0.217 HD
ENDBRANCH   5  18
TORSDOF 4
ENDMDL
MODEL 7
REMARK VINA RESULT:      -6.9      2.651      3.365
REMARK  4 active torsions:
REMARK  status: ('A' for Active; 'I' for Inactive)
REMARK    1  A    between atoms: C_4  and  C_9 
REMARK    2  A    between atoms: C_9  and  C_10 
REMARK    3  A    between atoms: C_12  and  O_13 
REMARK    4  A    between atoms: C_16  and  O_18 
ROOT
HETATM    1  C   UNK N   1      40.465  44.858  48.644  0.00  0.00    -0.047 A 
HETATM    2  C   UNK N   1      39.871  44.152  49.703  0.00  0.00     0.044 A 
HETATM    3  C   UNK N   1      40.416  44.222  50.993  0.00  0.00     0.068 A 
HETATM    4  C   UNK N   1      41.545  45.020  51.232  0.00  0.00     0.073 A 
HETATM    5  C   UNK N   1      42.136  45.733  50.187  0.00  0.00     0.068 A 
HETATM    6  C   UNK N   1      41.607  45.642  48.894  0.00  0.00     0.044 A 
ENDROOT
BRANCH   1   7
HETATM    7  C   UNK N   1      39.905  44.749  47.244  0.00  0.00     0.103 C 
BRANCH   7   8
HETATM    8  C   UNK N   1      40.912  44.197  46.274  0.00  0.00     0.061 A 
HETATM    9  C   UNK N   1      41.214  44.847  45.070  0.00  0.00     0.087 A 
HETATM   10  C   UNK N   1      42.170  44.280  44.223  0.00  0.00     0.176 A 
HETATM   11  O   UNK N   1      42.450  44.816  43.166  0.00  0.00    -0.288 OA
HETATM   12  C   UNK N   1      42.805  43.094  44.601  0.00  0.00     0.087 A 
HETATM   13  C   UNK N   1      42.460  42.503  45.822  0.00  0.00     0.053 A 
HETATM   14  O   UNK N   1      41.536  43.065  46.595  0.00  0.00    -0.319 OA
HETATM   15  C   UNK N   1      43.117  41.244  46.292  0.00  0.00     0.077 C 
ENDBRANCH   7   8
ENDBRANCH   1   7
BRANCH   3  16
HETATM   16  O   UNK N   1      39.852  43.517  51.994  0.00  0.00    -0.361 OA
HETATM   17  H   UNK N   1      40.226  43.516  52.887  0.00  0.00     0.217 HD
ENDBRANCH   3  16
BRANCH   5  18
HETATM   18  O   UNK N   1      43.215  46.506  50.433  0.00  0.00    -0.361 OA
HETATM   19  H   UNK N   1      43.791  46.346  51.193  0.00  0.00     0.217 HD
ENDBRANCH   5  18
TORSDOF 4
ENDMDL
MODEL 8
REMARK VINA RESULT:      -6.6      4.252      8.063
REMARK  4 active torsions:
REMARK  status: ('A' for Active; 'I' for Inactive)
REMARK    1  A    between atoms: C_4  and  C_9 
REMARK    2  A    between atoms: C_9  and  C_10 
REMARK    3  A    between atoms: C_12  and  O_13 
REMARK    4  A    between atoms: C_16  and  O_18 
ROOT
HETATM    1  C   UNK N   1      39.719  49.242  44.813  0.00  0.00    -0.047 A 
HETATM    2  C   UNK N   1      40.203  50.426  44.232  0.00  0.00     0.044 A 
HETATM    3  C   UNK N   1      39.613  50.935  43.067  0.00  0.00     0.068 A 
HETATM    4  C   UNK N   1      38.520  50.272  42.491  0.00  0.00     0.073 A 
HETATM    5  C   UNK N   1      38.025  49.099  43.066  0.00  0.00     0.068 A 
HETATM    6  C   UNK N   1      38.631  48.578  44.215  0.00  0.00     0.044 A 
ENDROOT
BRANCH   1   7
HETATM    7  C   UNK N   1      40.382  48.668  46.044  0.00  0.00     0.103 C 
BRANCH   7   8
HETATM    8  C   UNK N   1      40.250  47.173  46.112  0.00  0.00     0.061 A 
HETATM    9  C   UNK N   1      39.296  46.549  46.926  0.00  0.00     0.087 A 
HETATM   10  C   UNK N   1      39.225  45.153  46.928  0.00  0.00     0.176 A 
HETATM   11  O   UNK N   1      38.413  44.580  47.630  0.00  0.00    -0.288 OA
HETATM   12  C   UNK N   1      40.094  44.421  46.115  0.00  0.00     0.087 A 
HETATM   13  C   UNK N   1      41.017  45.110  45.320  0.00  0.00     0.053 A 
HETATM   14  O   UNK N   1      41.063  46.438  45.354  0.00  0.00    -0.319 OA
HETATM   15  C   UNK N   1      41.960  44.384  44.413  0.00  0.00     0.077 C 
ENDBRANCH   7   8
ENDBRANCH   1   7
BRANCH   3  16
HETATM   16  O   UNK N   1      40.106  52.056  42.505  0.00  0.00    -0.361 OA
HETATM   17  H   UNK N   1      40.121  52.179  41.545  0.00  0.00     0.217 HD
ENDBRANCH   3  16
BRANCH   5  18
HETATM   18  O   UNK N   1      36.964  48.478  42.509  0.00  0.00    -0.361 OA
HETATM   19  H   UNK N   1      36.897  48.349  41.552  0.00  0.00     0.217 HD
ENDBRANCH   5  18
TORSDOF 4
ENDMDL
MODEL 9
REMARK VINA RESULT:      -6.6      1.058      2.902
REMARK  4 active torsions:
REMARK  status: ('A' for Active; 'I' for Inactive)
REMARK    1  A    between atoms: C_4  and  C_9 
REMARK    2  A    between atoms: C_9  and  C_10 
REMARK    3  A    between atoms: C_12  and  O_13 
REMARK    4  A    between atoms: C_16  and  O_18 
ROOT
HETATM    1  C   UNK N   1      41.298  44.039  50.854  0.00  0.00    -0.047 A 
HETATM    2  C   UNK N   1      41.928  44.983  51.682  0.00  0.00     0.044 A 
HETATM    3  C   UNK N   1      41.527  45.131  53.017  0.00  0.00     0.068 A 
HETATM    4  C   UNK N   1      40.509  44.317  53.536  0.00  0.00     0.073 A 
HETATM    5  C   UNK N   1      39.884  43.369  52.723  0.00  0.00     0.068 A 
HETATM    6  C   UNK N   1      40.267  43.239  51.382  0.00  0.00     0.044 A 
ENDROOT
BRANCH   1   7
HETATM    7  C   UNK N   1      41.698  43.907  49.402  0.00  0.00     0.103 C 
BRANCH   7   8
HETATM    8  C   UNK N   1      41.350  45.133  48.606  0.00  0.00     0.061 A 
HETATM    9  C   UNK N   1      42.226  46.221  48.499  0.00  0.00     0.087 A 
HETATM   10  C   UNK N   1      41.837  47.323  47.731  0.00  0.00     0.176 A 
HETATM   11  O   UNK N   1      42.572  48.287  47.625  0.00  0.00    -0.288 OA
HETATM   12  C   UNK N   1      40.599  47.305  47.084  0.00  0.00     0.087 A 
HETATM   13  C   UNK N   1      39.777  46.181  47.228  0.00  0.00     0.053 A 
HETATM   14  O   UNK N   1      40.176  45.158  47.977  0.00  0.00    -0.319 OA
HETATM   15  C   UNK N   1      38.449  46.095  46.545  0.00  0.00     0.077 C 
ENDBRANCH   7   8
ENDBRANCH   1   7
BRANCH   3  16
HETATM   16  O   UNK N   1      42.121  46.061  53.792  0.00  0.00    -0.361 OA
HETATM   17  H   UNK N   1      42.702  46.739  53.417  0.00  0.00     0.217 HD
ENDBRANCH   3  16
BRANCH   5  18
HETATM   18  O   UNK N   1      38.915  42.584  53.238  0.00  0.00    -0.361 OA
HETATM   19  H   UNK N   1      38.272  42.924  53.877  0.00  0.00     0.217 HD
ENDBRANCH   5  18
TORSDOF 4
ENDMDL
