MODEL 1
REMARK VINA RESULT:      -6.3      0.000      0.000
REMARK  10 active torsions:
REMARK  status: ('A' for Active; 'I' for Inactive)
REMARK    1  A    between atoms: C_2  and  O_3 
REMARK    2  A    between atoms: C_2  and  C_5 
REMARK    3  A    between atoms: C_5  and  C_7 
REMARK    4  A    between atoms: C_7  and  C_8 
REMARK    5  A    between atoms: C_8  and  C_9 
REMARK    6  A    between atoms: C_10  and  O_11 
REMARK    7  A    between atoms: C_22  and  C_23 
REMARK    8  A    between atoms: C_23  and  O_24 
REMARK    9  A    between atoms: C_23  and  C_26 
REMARK   10  A    between atoms: C_26  and  O_27 
ROOT
HETATM    1  C   UNK N   1      41.188  48.389  46.126  0.00  0.00    -0.028 C 
HETATM    2  C   UNK N   1      42.388  48.415  45.517  0.00  0.00     0.020 C 
ENDROOT
BRANCH   1   3
HETATM    3  C   UNK N   1      39.914  48.783  45.385  0.00  0.00     0.187 C 
HETATM    4  O   UNK N   1      40.187  49.287  44.079  0.00  0.00    -0.338 OA
HETATM    5  C   UNK N   1      39.296  50.364  43.835  0.00  0.00     0.089 C 
HETATM    6  C   UNK N   1      38.286  50.368  44.997  0.00  0.00     0.046 C 
HETATM    7  C   UNK N   1      40.122  51.675  43.829  0.00  0.00     0.049 C 
HETATM    8  C   UNK N   1      39.151  49.882  46.119  0.00  0.00     0.076 C 
BRANCH   5   9
HETATM    9  C   UNK N   1      38.542  50.112  42.487  0.00  0.00     0.176 C 
BRANCH   9  10
HETATM   10  O   UNK N   1      39.368  49.498  41.528  0.00  0.00    -0.390 OA
HETATM   11  H   UNK N   1      39.278  48.516  41.627  0.00  0.00     0.210 HD
ENDBRANCH   9  10
BRANCH   9  12
HETATM   12  C   UNK N   1      37.186  49.380  42.604  0.00  0.00     0.198 C 
BRANCH  12  13
HETATM   13  O   UNK N   1      37.350  48.054  43.025  0.00  0.00    -0.398 OA
HETATM   14  H   UNK N   1      37.668  48.099  43.965  0.00  0.00     0.209 HD
ENDBRANCH  12  13
ENDBRANCH   9  12
ENDBRANCH   5   9
BRANCH   3  15
HETATM   15  O   UNK N   1      39.087  47.651  45.261  0.00  0.00    -0.362 OA
HETATM   16  H   UNK N   1      38.150  47.958  45.382  0.00  0.00     0.213 HD
ENDBRANCH   3  15
ENDBRANCH   1   3
BRANCH   1  17
HETATM   17  C   UNK N   1      41.109  47.926  47.566  0.00  0.00     0.039 C 
BRANCH  17  18
HETATM   18  C   UNK N   1      40.372  46.578  47.646  0.00  0.00     0.013 C 
BRANCH  18  19
HETATM   19  C   UNK N   1      41.287  45.325  47.840  0.00  0.00     0.028 C 
HETATM   20  C   UNK N   1      41.326  44.378  46.558  0.00  0.00     0.058 C 
HETATM   21  C   UNK N   1      42.167  43.110  46.850  0.00  0.00     0.038 C 
HETATM   22  C   UNK N   1      39.932  43.963  46.030  0.00  0.00     0.046 C 
HETATM   23  C   UNK N   1      41.716  42.375  48.114  0.00  0.00     0.004 C 
HETATM   24  C   UNK N   1      41.876  43.305  49.319  0.00  0.00     0.009 C 
HETATM   25  C   UNK N   1      40.995  44.582  49.222  0.00  0.00    -0.041 C 
HETATM   26  C   UNK N   1      41.410  45.486  50.418  0.00  0.00     0.015 C 
HETATM   27  C   UNK N   1      39.506  44.215  49.458  0.00  0.00     0.015 C 
BRANCH  20  28
HETATM   28  O   UNK N   1      41.943  45.047  45.483  0.00  0.00    -0.390 OA
HETATM   29  H   UNK N   1      42.908  45.166  45.691  0.00  0.00     0.210 HD
ENDBRANCH  20  28
ENDBRANCH  18  19
ENDBRANCH  17  18
ENDBRANCH   1  17
TORSDOF 10
ENDMDL
MODEL 2
REMARK VINA RESULT:      -5.8      1.548      2.509
REMARK  10 active torsions:
REMARK  status: ('A' for Active; 'I' for Inactive)
REMARK    1  A    between atoms: C_2  and  O_3 
REMARK    2  A    between atoms: C_2  and  C_5 
REMARK    3  A    between atoms: C_5  and  C_7 
REMARK    4  A    between atoms: C_7  and  C_8 
REMARK    5  A    between atoms: C_8  and  C_9 
REMARK    6  A    between atoms: C_10  and  O_11 
REMARK    7  A    between atoms: C_22  and  C_23 
REMARK    8  A    between atoms: C_23  and  O_24 
REMARK    9  A    between atoms: C_23  and  C_26 
REMARK   10  A    between atoms: C_26  and  O_27 
ROOT
HETATM    1  C   UNK N   1      40.849  47.467  45.982  0.00  0.00    -0.028 C 
HETATM    2  C   UNK N   1      41.528  46.556  45.260  0.00  0.00     0.020 C 
ENDROOT
BRANCH   1   3
HETATM    3  C   UNK N   1      39.654  48.211  45.394  0.00  0.00     0.187 C 
HETATM    4  O   UNK N   1      39.944  48.767  44.113  0.00  0.00    -0.338 OA
HETATM    5  C   UNK N   1      39.315  50.037  44.039  0.00  0.00     0.089 C 
HETATM    6  C   UNK N   1      38.419  50.154  45.286  0.00  0.00     0.046 C 
HETATM    7  C   UNK N   1      40.423  51.121  44.063  0.00  0.00     0.049 C 
HETATM    8  C   UNK N   1      39.223  49.376  46.281  0.00  0.00     0.076 C 
BRANCH   5   9
HETATM    9  C   UNK N   1      38.429  50.098  42.751  0.00  0.00     0.176 C 
BRANCH   9  10
HETATM   10  O   UNK N   1      39.112  49.618  41.618  0.00  0.00    -0.390 OA
HETATM   11  H   UNK N   1      38.827  48.682  41.460  0.00  0.00     0.210 HD
ENDBRANCH   9  10
BRANCH   9  12
HETATM   12  C   UNK N   1      37.028  49.456  42.869  0.00  0.00     0.198 C 
BRANCH  12  13
HETATM   13  O   UNK N   1      37.104  48.057  42.909  0.00  0.00    -0.398 OA
HETATM   14  H   UNK N   1      36.218  47.740  43.223  0.00  0.00     0.209 HD
ENDBRANCH  12  13
ENDBRANCH   9  12
ENDBRANCH   5   9
BRANCH   3  15
HETATM   15  O   UNK N   1      38.578  47.315  45.257  0.00  0.00    -0.362 OA
HETATM   16  H   UNK N   1      38.429  46.896  46.146  0.00  0.00     0.213 HD
ENDBRANCH   3  15
ENDBRANCH   1   3
BRANCH   1  17
HETATM   17  C   UNK N   1      41.268  47.725  47.414  0.00  0.00     0.039 C 
BRANCH  17  18
HETATM   18  C   UNK N   1      41.882  46.452  48.020  0.00  0.00     0.013 C 
BRANCH  18  19
HETATM   19  C   UNK N   1      41.007  45.736  49.101  0.00  0.00     0.028 C 
HETATM   20  C   UNK N   1      41.761  45.556  50.493  0.00  0.00     0.058 C 
HETATM   21  C   UNK N   1      40.880  44.755  51.485  0.00  0.00     0.038 C 
HETATM   22  C   UNK N   1      43.152  44.887  50.383  0.00  0.00     0.046 C 
HETATM   23  C   UNK N   1      40.387  43.428  50.904  0.00  0.00     0.004 C 
HETATM   24  C   UNK N   1      39.529  43.709  49.668  0.00  0.00     0.009 C 
HETATM   25  C   UNK N   1      40.316  44.415  48.529  0.00  0.00    -0.041 C 
HETATM   26  C   UNK N   1      39.267  44.784  47.441  0.00  0.00     0.015 C 
HETATM   27  C   UNK N   1      41.292  43.411  47.861  0.00  0.00     0.015 C 
BRANCH  20  28
HETATM   28  O   UNK N   1      42.003  46.815  51.078  0.00  0.00    -0.390 OA
HETATM   29  H   UNK N   1      41.152  47.161  51.457  0.00  0.00     0.210 HD
ENDBRANCH  20  28
ENDBRANCH  18  19
ENDBRANCH  17  18
ENDBRANCH   1  17
TORSDOF 10
ENDMDL
MODEL 3
REMARK VINA RESULT:      -5.7      2.983      7.535
REMARK  10 active torsions:
REMARK  status: ('A' for Active; 'I' for Inactive)
REMARK    1  A    between atoms: C_2  and  O_3 
REMARK    2  A    between atoms: C_2  and  C_5 
REMARK    3  A    between atoms: C_5  and  C_7 
REMARK    4  A    between atoms: C_7  and  C_8 
REMARK    5  A    between atoms: C_8  and  C_9 
REMARK    6  A    between atoms: C_10  and  O_11 
REMARK    7  A    between atoms: C_22  and  C_23 
REMARK    8  A    between atoms: C_23  and  O_24 
REMARK    9  A    between atoms: C_23  and  C_26 
REMARK   10  A    between atoms: C_26  and  O_27 
ROOT
HETATM    1  C   UNK N   1      39.154  45.158  48.371  0.00  0.00    -0.028 C 
HETATM    2  C   UNK N   1      37.970  45.698  48.712  0.00  0.00     0.020 C 
ENDROOT
BRANCH   1   3
HETATM    3  C   UNK N   1      39.981  44.363  49.376  0.00  0.00     0.187 C 
HETATM    4  O   UNK N   1      40.325  45.138  50.523  0.00  0.00    -0.338 OA
HETATM    5  C   UNK N   1      41.652  44.800  50.894  0.00  0.00     0.089 C 
HETATM    6  C   UNK N   1      42.052  43.589  50.031  0.00  0.00     0.046 C 
HETATM    7  C   UNK N   1      42.561  46.015  50.579  0.00  0.00     0.049 C 
HETATM    8  C   UNK N   1      41.298  43.885  48.770  0.00  0.00     0.076 C 
BRANCH   5   9
HETATM    9  C   UNK N   1      41.675  44.395  52.405  0.00  0.00     0.176 C 
BRANCH   9  10
HETATM   10  O   UNK N   1      42.523  45.227  53.160  0.00  0.00    -0.390 OA
HETATM   11  H   UNK N   1      42.575  46.107  52.707  0.00  0.00     0.210 HD
ENDBRANCH   9  10
BRANCH   9  12
HETATM   12  C   UNK N   1      40.294  44.248  53.082  0.00  0.00     0.198 C 
BRANCH  12  13
HETATM   13  O   UNK N   1      39.608  43.120  52.611  0.00  0.00    -0.398 OA
HETATM   14  H   UNK N   1      39.633  43.173  51.620  0.00  0.00     0.209 HD
ENDBRANCH  12  13
ENDBRANCH   9  12
ENDBRANCH   5   9
BRANCH   3  15
HETATM   15  O   UNK N   1      39.237  43.246  49.801  0.00  0.00    -0.362 OA
HETATM   16  H   UNK N   1      39.868  42.630  50.260  0.00  0.00     0.213 HD
ENDBRANCH   3  15
ENDBRANCH   1   3
BRANCH   1  17
HETATM   17  C   UNK N   1      39.649  45.320  46.948  0.00  0.00     0.039 C 
BRANCH  17  18
HETATM   18  C   UNK N   1      39.169  46.664  46.374  0.00  0.00     0.013 C 
BRANCH  18  19
HETATM   19  C   UNK N   1      40.267  47.514  45.654  0.00  0.00     0.028 C 
HETATM   20  C   UNK N   1      41.644  47.559  46.454  0.00  0.00     0.058 C 
HETATM   21  C   UNK N   1      42.653  48.494  45.740  0.00  0.00     0.038 C 
HETATM   22  C   UNK N   1      41.508  47.982  47.936  0.00  0.00     0.046 C 
HETATM   23  C   UNK N   1      42.083  49.887  45.468  0.00  0.00     0.004 C 
HETATM   24  C   UNK N   1      40.863  49.760  44.551  0.00  0.00     0.009 C 
HETATM   25  C   UNK N   1      39.709  48.935  45.186  0.00  0.00    -0.041 C 
HETATM   26  C   UNK N   1      38.641  48.753  44.069  0.00  0.00     0.015 C 
HETATM   27  C   UNK N   1      39.023  49.762  46.306  0.00  0.00     0.015 C 
BRANCH  20  28
HETATM   28  O   UNK N   1      42.224  46.275  46.490  0.00  0.00    -0.390 OA
HETATM   29  H   UNK N   1      42.112  45.898  47.402  0.00  0.00     0.210 HD
ENDBRANCH  20  28
ENDBRANCH  18  19
ENDBRANCH  17  18
ENDBRANCH   1  17
TORSDOF 10
ENDMDL
MODEL 4
REMARK VINA RESULT:      -5.7      9.186     13.177
REMARK  10 active torsions:
REMARK  status: ('A' for Active; 'I' for Inactive)
REMARK    1  A    between atoms: C_2  and  O_3 
REMARK    2  A    between atoms: C_2  and  C_5 
REMARK    3  A    between atoms: C_5  and  C_7 
REMARK    4  A    between atoms: C_7  and  C_8 
REMARK    5  A    between atoms: C_8  and  C_9 
REMARK    6  A    between atoms: C_10  and  O_11 
REMARK    7  A    between atoms: C_22  and  C_23 
REMARK    8  A    between atoms: C_23  and  O_24 
REMARK    9  A    between atoms: C_23  and  C_26 
REMARK   10  A    between atoms: C_26  and  O_27 
ROOT
HETATM    1  C   UNK N   1      29.523  54.273  40.777  0.00  0.00    -0.028 C 
HETATM    2  C   UNK N   1      29.817  55.584  40.855  0.00  0.00     0.020 C 
ENDROOT
BRANCH   1   3
HETATM    3  C   UNK N   1      28.108  53.796  40.465  0.00  0.00     0.187 C 
HETATM    4  O   UNK N   1      28.092  52.473  39.932  0.00  0.00    -0.338 OA
HETATM    5  C   UNK N   1      27.102  52.427  38.916  0.00  0.00     0.089 C 
HETATM    6  C   UNK N   1      26.335  53.760  38.992  0.00  0.00     0.046 C 
HETATM    7  C   UNK N   1      27.824  52.292  37.551  0.00  0.00     0.049 C 
HETATM    8  C   UNK N   1      27.429  54.686  39.427  0.00  0.00     0.076 C 
BRANCH   5   9
HETATM    9  C   UNK N   1      26.122  51.243  39.207  0.00  0.00     0.176 C 
BRANCH   9  10
HETATM   10  O   UNK N   1      26.117  50.295  38.168  0.00  0.00    -0.390 OA
HETATM   11  H   UNK N   1      27.057  50.101  37.922  0.00  0.00     0.210 HD
ENDBRANCH   9  10
BRANCH   9  12
HETATM   12  C   UNK N   1      26.286  50.558  40.583  0.00  0.00     0.198 C 
BRANCH  12  13
HETATM   13  O   UNK N   1      25.766  51.348  41.617  0.00  0.00    -0.398 OA
HETATM   14  H   UNK N   1      26.357  52.142  41.684  0.00  0.00     0.209 HD
ENDBRANCH  12  13
ENDBRANCH   9  12
ENDBRANCH   5   9
BRANCH   3  15
HETATM   15  O   UNK N   1      27.348  53.808  41.650  0.00  0.00    -0.362 OA
HETATM   16  H   UNK N   1      27.350  52.882  42.010  0.00  0.00     0.213 HD
ENDBRANCH   3  15
ENDBRANCH   1   3
BRANCH   1  17
HETATM   17  C   UNK N   1      30.634  53.261  40.971  0.00  0.00     0.039 C 
BRANCH  17  18
HETATM   18  C   UNK N   1      30.714  52.845  42.450  0.00  0.00     0.013 C 
BRANCH  18  19
HETATM   19  C   UNK N   1      32.154  52.818  43.059  0.00  0.00     0.028 C 
HETATM   20  C   UNK N   1      32.653  51.346  43.411  0.00  0.00     0.058 C 
HETATM   21  C   UNK N   1      34.041  51.396  44.100  0.00  0.00     0.038 C 
HETATM   22  C   UNK N   1      31.672  50.532  44.287  0.00  0.00     0.046 C 
HETATM   23  C   UNK N   1      34.070  52.335  45.308  0.00  0.00     0.004 C 
HETATM   24  C   UNK N   1      33.747  53.758  44.846  0.00  0.00     0.009 C 
HETATM   25  C   UNK N   1      32.326  53.889  44.230  0.00  0.00    -0.041 C 
HETATM   26  C   UNK N   1      32.235  55.333  43.657  0.00  0.00     0.015 C 
HETATM   27  C   UNK N   1      31.256  53.803  45.350  0.00  0.00     0.015 C 
BRANCH  20  28
HETATM   28  O   UNK N   1      32.805  50.592  42.230  0.00  0.00    -0.390 OA
HETATM   29  H   UNK N   1      32.222  50.981  41.525  0.00  0.00     0.210 HD
ENDBRANCH  20  28
ENDBRANCH  18  19
ENDBRANCH  17  18
ENDBRANCH   1  17
TORSDOF 10
ENDMDL
MODEL 5
REMARK VINA RESULT:      -5.7     10.413     13.874
REMARK  10 active torsions:
REMARK  status: ('A' for Active; 'I' for Inactive)
REMARK    1  A    between atoms: C_2  and  O_3 
REMARK    2  A    between atoms: C_2  and  C_5 
REMARK    3  A    between atoms: C_5  and  C_7 
REMARK    4  A    between atoms: C_7  and  C_8 
REMARK    5  A    between atoms: C_8  and  C_9 
REMARK    6  A    between atoms: C_10  and  O_11 
REMARK    7  A    between atoms: C_22  and  C_23 
REMARK    8  A    between atoms: C_23  and  O_24 
REMARK    9  A    between atoms: C_23  and  C_26 
REMARK   10  A    between atoms: C_26  and  O_27 
ROOT
HETATM    1  C   UNK N   1      29.605  52.053  39.880  0.00  0.00    -0.028 C 
HETATM    2  C   UNK N   1      29.952  53.111  39.122  0.00  0.00     0.020 C 
ENDROOT
BRANCH   1   3
HETATM    3  C   UNK N   1      28.175  51.524  39.893  0.00  0.00     0.187 C 
HETATM    4  O   UNK N   1      27.652  51.354  38.577  0.00  0.00    -0.338 OA
HETATM    5  C   UNK N   1      26.289  51.750  38.597  0.00  0.00     0.089 C 
HETATM    6  C   UNK N   1      25.922  51.977  40.075  0.00  0.00     0.046 C 
HETATM    7  C   UNK N   1      26.164  53.072  37.797  0.00  0.00     0.049 C 
HETATM    8  C   UNK N   1      27.226  52.479  40.613  0.00  0.00     0.076 C 
BRANCH   5   9
HETATM    9  C   UNK N   1      25.411  50.596  38.010  0.00  0.00     0.176 C 
BRANCH   9  10
HETATM   10  O   UNK N   1      25.986  50.029  36.859  0.00  0.00    -0.390 OA
HETATM   11  H   UNK N   1      25.349  50.142  36.108  0.00  0.00     0.210 HD
ENDBRANCH   9  10
BRANCH   9  12
HETATM   12  C   UNK N   1      24.981  49.502  39.014  0.00  0.00     0.198 C 
BRANCH  12  13
HETATM   13  O   UNK N   1      26.051  48.660  39.346  0.00  0.00    -0.398 OA
HETATM   14  H   UNK N   1      25.932  48.424  40.303  0.00  0.00     0.209 HD
ENDBRANCH  12  13
ENDBRANCH   9  12
ENDBRANCH   5   9
BRANCH   3  15
HETATM   15  O   UNK N   1      28.153  50.276  40.545  0.00  0.00    -0.362 OA
HETATM   16  H   UNK N   1      28.917  49.747  40.192  0.00  0.00     0.213 HD
ENDBRANCH   3  15
ENDBRANCH   1   3
BRANCH   1  17
HETATM   17  C   UNK N   1      30.672  51.364  40.705  0.00  0.00     0.039 C 
BRANCH  17  18
HETATM   18  C   UNK N   1      31.575  52.411  41.379  0.00  0.00     0.013 C 
BRANCH  18  19
HETATM   19  C   UNK N   1      31.144  52.837  42.821  0.00  0.00     0.028 C 
HETATM   20  C   UNK N   1      30.700  54.364  42.912  0.00  0.00     0.058 C 
HETATM   21  C   UNK N   1      30.382  54.748  44.379  0.00  0.00     0.038 C 
HETATM   22  C   UNK N   1      31.729  55.363  42.329  0.00  0.00     0.046 C 
HETATM   23  C   UNK N   1      31.518  54.404  45.343  0.00  0.00     0.004 C 
HETATM   24  C   UNK N   1      31.760  52.893  45.317  0.00  0.00     0.009 C 
HETATM   25  C   UNK N   1      32.203  52.372  43.921  0.00  0.00    -0.041 C 
HETATM   26  C   UNK N   1      32.226  50.820  44.025  0.00  0.00     0.015 C 
HETATM   27  C   UNK N   1      33.665  52.805  43.636  0.00  0.00     0.015 C 
BRANCH  20  28
HETATM   28  O   UNK N   1      29.523  54.571  42.165  0.00  0.00    -0.390 OA
HETATM   29  H   UNK N   1      29.448  53.854  41.481  0.00  0.00     0.210 HD
ENDBRANCH  20  28
ENDBRANCH  18  19
ENDBRANCH  17  18
ENDBRANCH   1  17
TORSDOF 10
ENDMDL
MODEL 6
REMARK VINA RESULT:      -5.6     14.196     15.999
REMARK  10 active torsions:
REMARK  status: ('A' for Active; 'I' for Inactive)
REMARK    1  A    between atoms: C_2  and  O_3 
REMARK    2  A    between atoms: C_2  and  C_5 
REMARK    3  A    between atoms: C_5  and  C_7 
REMARK    4  A    between atoms: C_7  and  C_8 
REMARK    5  A    between atoms: C_8  and  C_9 
REMARK    6  A    between atoms: C_10  and  O_11 
REMARK    7  A    between atoms: C_22  and  C_23 
REMARK    8  A    between atoms: C_23  and  O_24 
REMARK    9  A    between atoms: C_23  and  C_26 
REMARK   10  A    between atoms: C_26  and  O_27 
ROOT
HETATM    1  C   UNK N   1      29.880  42.726  56.337  0.00  0.00    -0.028 C 
HETATM    2  C   UNK N   1      28.802  43.318  56.885  0.00  0.00     0.020 C 
ENDROOT
BRANCH   1   3
HETATM    3  C   UNK N   1      29.744  41.769  55.157  0.00  0.00     0.187 C 
HETATM    4  O   UNK N   1      28.676  42.137  54.287  0.00  0.00    -0.338 OA
HETATM    5  C   UNK N   1      28.039  40.945  53.853  0.00  0.00     0.089 C 
HETATM    6  C   UNK N   1      28.920  39.778  54.337  0.00  0.00     0.046 C 
HETATM    7  C   UNK N   1      26.640  40.882  54.516  0.00  0.00     0.049 C 
HETATM    8  C   UNK N   1      29.450  40.343  55.618  0.00  0.00     0.076 C 
BRANCH   5   9
HETATM    9  C   UNK N   1      27.974  40.938  52.289  0.00  0.00     0.176 C 
BRANCH   9  10
HETATM   10  O   UNK N   1      26.751  40.428  51.815  0.00  0.00    -0.390 OA
HETATM   11  H   UNK N   1      26.806  40.367  50.827  0.00  0.00     0.210 HD
ENDBRANCH   9  10
BRANCH   9  12
HETATM   12  C   UNK N   1      28.326  42.273  51.597  0.00  0.00     0.198 C 
BRANCH  12  13
HETATM   13  O   UNK N   1      29.709  42.500  51.587  0.00  0.00    -0.398 OA
HETATM   14  H   UNK N   1      29.969  42.593  50.634  0.00  0.00     0.209 HD
ENDBRANCH  12  13
ENDBRANCH   9  12
ENDBRANCH   5   9
BRANCH   3  15
HETATM   15  O   UNK N   1      30.942  41.777  54.419  0.00  0.00    -0.362 OA
HETATM   16  H   UNK N   1      31.461  42.573  54.710  0.00  0.00     0.213 HD
ENDBRANCH   3  15
ENDBRANCH   1   3
BRANCH   1  17
HETATM   17  C   UNK N   1      31.252  43.051  56.890  0.00  0.00     0.039 C 
BRANCH  17  18
HETATM   18  C   UNK N   1      31.456  42.344  58.241  0.00  0.00     0.013 C 
BRANCH  18  19
HETATM   19  C   UNK N   1      32.253  43.162  59.310  0.00  0.00     0.028 C 
HETATM   20  C   UNK N   1      33.675  42.527  59.646  0.00  0.00     0.058 C 
HETATM   21  C   UNK N   1      34.368  43.325  60.780  0.00  0.00     0.038 C 
HETATM   22  C   UNK N   1      33.630  41.027  60.025  0.00  0.00     0.046 C 
HETATM   23  C   UNK N   1      33.485  43.487  62.018  0.00  0.00     0.004 C 
HETATM   24  C   UNK N   1      32.219  44.259  61.636  0.00  0.00     0.009 C 
HETATM   25  C   UNK N   1      31.352  43.519  60.579  0.00  0.00    -0.041 C 
HETATM   26  C   UNK N   1      30.222  44.509  60.176  0.00  0.00     0.015 C 
HETATM   27  C   UNK N   1      30.645  42.303  61.234  0.00  0.00     0.015 C 
BRANCH  20  28
HETATM   28  O   UNK N   1      34.515  42.597  58.517  0.00  0.00    -0.390 OA
HETATM   29  H   UNK N   1      35.129  43.371  58.623  0.00  0.00     0.210 HD
ENDBRANCH  20  28
ENDBRANCH  18  19
ENDBRANCH  17  18
ENDBRANCH   1  17
TORSDOF 10
ENDMDL
MODEL 7
REMARK VINA RESULT:      -5.4     10.126     15.038
REMARK  10 active torsions:
REMARK  status: ('A' for Active; 'I' for Inactive)
REMARK    1  A    between atoms: C_2  and  O_3 
REMARK    2  A    between atoms: C_2  and  C_5 
REMARK    3  A    between atoms: C_5  and  C_7 
REMARK    4  A    between atoms: C_7  and  C_8 
REMARK    5  A    between atoms: C_8  and  C_9 
REMARK    6  A    between atoms: C_10  and  O_11 
REMARK    7  A    between atoms: C_22  and  C_23 
REMARK    8  A    between atoms: C_23  and  O_24 
REMARK    9  A    between atoms: C_23  and  C_26 
REMARK   10  A    between atoms: C_26  and  O_27 
ROOT
HETATM    1  C   UNK N   1      30.447  54.217  41.973  0.00  0.00    -0.028 C 
HETATM    2  C   UNK N   1      30.726  52.980  41.522  0.00  0.00     0.020 C 
ENDROOT
BRANCH   1   3
HETATM    3  C   UNK N   1      31.155  54.791  43.197  0.00  0.00     0.187 C 
HETATM    4  O   UNK N   1      32.529  54.412  43.250  0.00  0.00    -0.338 OA
HETATM    5  C   UNK N   1      32.855  54.151  44.606  0.00  0.00     0.089 C 
HETATM    6  C   UNK N   1      31.644  54.605  45.442  0.00  0.00     0.046 C 
HETATM    7  C   UNK N   1      33.079  52.625  44.758  0.00  0.00     0.049 C 
HETATM    8  C   UNK N   1      30.523  54.300  44.496  0.00  0.00     0.076 C 
BRANCH   5   9
HETATM    9  C   UNK N   1      34.112  54.994  45.004  0.00  0.00     0.176 C 
BRANCH   9  10
HETATM   10  O   UNK N   1      34.835  55.426  43.877  0.00  0.00    -0.390 OA
HETATM   11  H   UNK N   1      35.067  54.629  43.335  0.00  0.00     0.210 HD
ENDBRANCH   9  10
BRANCH   9  12
HETATM   12  C   UNK N   1      33.853  56.163  45.981  0.00  0.00     0.198 C 
BRANCH  12  13
HETATM   13  O   UNK N   1      34.330  57.377  45.469  0.00  0.00    -0.398 OA
HETATM   14  H   UNK N   1      34.420  57.990  46.245  0.00  0.00     0.209 HD
ENDBRANCH  12  13
ENDBRANCH   9  12
ENDBRANCH   5   9
BRANCH   3  15
HETATM   15  O   UNK N   1      31.083  56.196  43.152  0.00  0.00    -0.362 OA
HETATM   16  H   UNK N   1      31.251  56.469  42.211  0.00  0.00     0.213 HD
ENDBRANCH   3  15
ENDBRANCH   1   3
BRANCH   1  17
HETATM   17  C   UNK N   1      29.435  55.059  41.224  0.00  0.00     0.039 C 
BRANCH  17  18
HETATM   18  C   UNK N   1      28.064  54.362  41.229  0.00  0.00     0.013 C 
BRANCH  18  19
HETATM   19  C   UNK N   1      27.415  54.152  39.822  0.00  0.00     0.028 C 
HETATM   20  C   UNK N   1      26.267  55.209  39.502  0.00  0.00     0.058 C 
HETATM   21  C   UNK N   1      25.600  54.886  38.141  0.00  0.00     0.038 C 
HETATM   22  C   UNK N   1      25.179  55.319  40.596  0.00  0.00     0.046 C 
HETATM   23  C   UNK N   1      25.114  53.439  38.045  0.00  0.00     0.004 C 
HETATM   24  C   UNK N   1      26.311  52.497  38.192  0.00  0.00     0.009 C 
HETATM   25  C   UNK N   1      27.020  52.626  39.569  0.00  0.00    -0.041 C 
HETATM   26  C   UNK N   1      28.301  51.746  39.480  0.00  0.00     0.015 C 
HETATM   27  C   UNK N   1      26.140  51.992  40.678  0.00  0.00     0.015 C 
BRANCH  20  28
HETATM   28  O   UNK N   1      26.817  56.503  39.398  0.00  0.00    -0.390 OA
HETATM   29  H   UNK N   1      26.445  56.944  38.589  0.00  0.00     0.210 HD
ENDBRANCH  20  28
ENDBRANCH  18  19
ENDBRANCH  17  18
ENDBRANCH   1  17
TORSDOF 10
ENDMDL
MODEL 8
REMARK VINA RESULT:      -5.3     14.227     16.638
REMARK  10 active torsions:
REMARK  status: ('A' for Active; 'I' for Inactive)
REMARK    1  A    between atoms: C_2  and  O_3 
REMARK    2  A    between atoms: C_2  and  C_5 
REMARK    3  A    between atoms: C_5  and  C_7 
REMARK    4  A    between atoms: C_7  and  C_8 
REMARK    5  A    between atoms: C_8  and  C_9 
REMARK    6  A    between atoms: C_10  and  O_11 
REMARK    7  A    between atoms: C_22  and  C_23 
REMARK    8  A    between atoms: C_23  and  O_24 
REMARK    9  A    between atoms: C_23  and  C_26 
REMARK   10  A    between atoms: C_26  and  O_27 
ROOT
HETATM    1  C   UNK N   1      30.196  41.761  56.594  0.00  0.00    -0.028 C 
HETATM    2  C   UNK N   1      29.379  40.912  57.245  0.00  0.00     0.020 C 
ENDROOT
BRANCH   1   3
HETATM    3  C   UNK N   1      31.093  42.735  57.352  0.00  0.00     0.187 C 
HETATM    4  O   UNK N   1      31.504  42.215  58.614  0.00  0.00    -0.338 OA
HETATM    5  C   UNK N   1      31.494  43.284  59.548  0.00  0.00     0.089 C 
HETATM    6  C   UNK N   1      31.258  44.571  58.737  0.00  0.00     0.046 C 
HETATM    7  C   UNK N   1      30.326  43.042  60.538  0.00  0.00     0.049 C 
HETATM    8  C   UNK N   1      30.377  44.051  57.642  0.00  0.00     0.076 C 
BRANCH   5   9
HETATM    9  C   UNK N   1      32.888  43.360  60.256  0.00  0.00     0.176 C 
BRANCH   9  10
HETATM   10  O   UNK N   1      32.765  43.415  61.657  0.00  0.00    -0.390 OA
HETATM   11  H   UNK N   1      33.672  43.338  62.049  0.00  0.00     0.210 HD
ENDBRANCH   9  10
BRANCH   9  12
HETATM   12  C   UNK N   1      33.917  42.290  59.829  0.00  0.00     0.198 C 
BRANCH  12  13
HETATM   13  O   UNK N   1      34.453  42.567  58.564  0.00  0.00    -0.398 OA
HETATM   14  H   UNK N   1      35.364  42.929  58.722  0.00  0.00     0.209 HD
ENDBRANCH  12  13
ENDBRANCH   9  12
ENDBRANCH   5   9
BRANCH   3  15
HETATM   15  O   UNK N   1      32.241  42.996  56.582  0.00  0.00    -0.362 OA
HETATM   16  H   UNK N   1      33.030  42.816  57.160  0.00  0.00     0.213 HD
ENDBRANCH   3  15
ENDBRANCH   1   3
BRANCH   1  17
HETATM   17  C   UNK N   1      30.243  41.715  55.080  0.00  0.00     0.039 C 
BRANCH  17  18
HETATM   18  C   UNK N   1      28.952  42.312  54.495  0.00  0.00     0.013 C 
BRANCH  18  19
HETATM   19  C   UNK N   1      28.323  41.512  53.309  0.00  0.00     0.028 C 
HETATM   20  C   UNK N   1      28.305  42.334  51.943  0.00  0.00     0.058 C 
HETATM   21  C   UNK N   1      27.582  41.526  50.836  0.00  0.00     0.038 C 
HETATM   22  C   UNK N   1      27.669  43.740  52.054  0.00  0.00     0.046 C 
HETATM   23  C   UNK N   1      26.190  41.052  51.259  0.00  0.00     0.004 C 
HETATM   24  C   UNK N   1      26.321  40.129  52.473  0.00  0.00     0.009 C 
HETATM   25  C   UNK N   1      26.932  40.840  53.713  0.00  0.00    -0.041 C 
HETATM   26  C   UNK N   1      27.160  39.730  54.780  0.00  0.00     0.015 C 
HETATM   27  C   UNK N   1      25.895  41.818  54.325  0.00  0.00     0.015 C 
BRANCH  20  28
HETATM   28  O   UNK N   1      29.622  42.560  51.498  0.00  0.00    -0.390 OA
HETATM   29  H   UNK N   1      29.686  43.485  51.141  0.00  0.00     0.210 HD
ENDBRANCH  20  28
ENDBRANCH  18  19
ENDBRANCH  17  18
ENDBRANCH   1  17
TORSDOF 10
ENDMDL
MODEL 9
REMARK VINA RESULT:      -5.3     14.014     16.802
REMARK  10 active torsions:
REMARK  status: ('A' for Active; 'I' for Inactive)
REMARK    1  A    between atoms: C_2  and  O_3 
REMARK    2  A    between atoms: C_2  and  C_5 
REMARK    3  A    between atoms: C_5  and  C_7 
REMARK    4  A    between atoms: C_7  and  C_8 
REMARK    5  A    between atoms: C_8  and  C_9 
REMARK    6  A    between atoms: C_10  and  O_11 
REMARK    7  A    between atoms: C_22  and  C_23 
REMARK    8  A    between atoms: C_23  and  O_24 
REMARK    9  A    between atoms: C_23  and  C_26 
REMARK   10  A    between atoms: C_26  and  O_27 
ROOT
HETATM    1  C   UNK N   1      30.367  42.514  55.979  0.00  0.00    -0.028 C 
HETATM    2  C   UNK N   1      30.940  41.778  55.009  0.00  0.00     0.020 C 
ENDROOT
BRANCH   1   3
HETATM    3  C   UNK N   1      31.205  43.191  57.059  0.00  0.00     0.187 C 
HETATM    4  O   UNK N   1      31.405  42.348  58.192  0.00  0.00    -0.338 OA
HETATM    5  C   UNK N   1      31.328  43.158  59.355  0.00  0.00     0.089 C 
HETATM    6  C   UNK N   1      31.283  44.618  58.868  0.00  0.00     0.046 C 
HETATM    7  C   UNK N   1      30.022  42.794  60.105  0.00  0.00     0.049 C 
HETATM    8  C   UNK N   1      30.534  44.459  57.581  0.00  0.00     0.076 C 
BRANCH   5   9
HETATM    9  C   UNK N   1      32.612  42.936  60.222  0.00  0.00     0.176 C 
BRANCH   9  10
HETATM   10  O   UNK N   1      32.301  42.484  61.517  0.00  0.00    -0.390 OA
HETATM   11  H   UNK N   1      32.084  43.274  62.075  0.00  0.00     0.210 HD
ENDBRANCH   9  10
BRANCH   9  12
HETATM   12  C   UNK N   1      33.713  42.064  59.578  0.00  0.00     0.198 C 
BRANCH  12  13
HETATM   13  O   UNK N   1      34.459  42.787  58.637  0.00  0.00    -0.398 OA
HETATM   14  H   UNK N   1      34.831  43.570  59.120  0.00  0.00     0.209 HD
ENDBRANCH  12  13
ENDBRANCH   9  12
ENDBRANCH   5   9
BRANCH   3  15
HETATM   15  O   UNK N   1      32.463  43.523  56.523  0.00  0.00    -0.362 OA
HETATM   16  H   UNK N   1      32.465  43.228  55.574  0.00  0.00     0.213 HD
ENDBRANCH   3  15
ENDBRANCH   1   3
BRANCH   1  17
HETATM   17  C   UNK N   1      28.863  42.693  55.969  0.00  0.00     0.039 C 
BRANCH  17  18
HETATM   18  C   UNK N   1      28.249  41.921  54.788  0.00  0.00     0.013 C 
BRANCH  18  19
HETATM   19  C   UNK N   1      27.604  42.807  53.672  0.00  0.00     0.028 C 
HETATM   20  C   UNK N   1      26.111  43.249  54.013  0.00  0.00     0.058 C 
HETATM   21  C   UNK N   1      25.498  44.038  52.829  0.00  0.00     0.038 C 
HETATM   22  C   UNK N   1      25.172  42.080  54.396  0.00  0.00     0.046 C 
HETATM   23  C   UNK N   1      25.604  43.291  51.499  0.00  0.00     0.004 C 
HETATM   24  C   UNK N   1      27.081  43.061  51.167  0.00  0.00     0.009 C 
HETATM   25  C   UNK N   1      27.810  42.179  52.219  0.00  0.00    -0.041 C 
HETATM   26  C   UNK N   1      29.317  42.200  51.832  0.00  0.00     0.015 C 
HETATM   27  C   UNK N   1      27.350  40.704  52.081  0.00  0.00     0.015 C 
BRANCH  20  28
HETATM   28  O   UNK N   1      26.105  44.108  55.131  0.00  0.00    -0.390 OA
HETATM   29  H   UNK N   1      26.178  43.560  55.956  0.00  0.00     0.210 HD
ENDBRANCH  20  28
ENDBRANCH  18  19
ENDBRANCH  17  18
ENDBRANCH   1  17
TORSDOF 10
ENDMDL
