MODEL 1
REMARK VINA RESULT:      -5.8      0.000      0.000
REMARK  4 active torsions:
REMARK  status: ('A' for Active; 'I' for Inactive)
REMARK    1  A    between atoms: C_4  and  C_30 
REMARK    2  A    between atoms: C_10  and  C_17 
REMARK    3  A    between atoms: C_17  and  C_18 
REMARK    4  A    between atoms: C_18  and  O_20 
ROOT
HETATM    1  O   UNK N   1      33.380  42.971  61.016  0.00  0.00    -0.265 OA
HETATM    2  C   UNK N   1      32.277  43.049  60.495  0.00  0.00     0.262 C 
HETATM    3  O   UNK N   1      31.637  44.245  60.492  0.00  0.00    -0.310 OA
HETATM    4  C   UNK N   1      30.329  44.497  60.091  0.00  0.00     0.178 C 
HETATM    5  C   UNK N   1      29.473  43.164  59.926  0.00  0.00     0.023 C 
HETATM    6  C   UNK N   1      30.312  42.049  59.207  0.00  0.00     0.103 C 
HETATM    7  O   UNK N   1      29.559  40.820  59.256  0.00  0.00    -0.368 OA
HETATM    8  C   UNK N   1      29.610  40.095  58.040  0.00  0.00     0.139 C 
HETATM    9  C   UNK N   1      28.759  40.808  56.932  0.00  0.00    -0.005 C 
HETATM   10  C   UNK N   1      29.171  40.098  55.566  0.00  0.00     0.021 C 
HETATM   11  C   UNK N   1      29.170  38.477  55.595  0.00  0.00     0.018 C 
HETATM   12  C   UNK N   1      27.867  37.836  55.035  0.00  0.00     0.023 C 
HETATM   13  C   UNK N   1      30.349  37.967  54.724  0.00  0.00     0.023 C 
HETATM   14  C   UNK N   1      29.338  37.855  56.996  0.00  0.00     0.137 C 
HETATM   15  C   UNK N   1      29.270  38.644  58.267  0.00  0.00     0.112 C 
HETATM   16  O   UNK N   1      29.399  36.636  57.097  0.00  0.00    -0.297 OA
HETATM   17  C   UNK N   1      29.199  42.372  56.948  0.00  0.00     0.028 C 
HETATM   18  C   UNK N   1      30.484  42.499  57.737  0.00  0.00    -0.049 C 
HETATM   19  C   UNK N   1      31.642  42.864  57.161  0.00  0.00     0.018 C 
HETATM   20  C   UNK N   1      28.245  43.414  57.604  0.00  0.00     0.011 C 
HETATM   21  C   UNK N   1      28.120  43.338  59.155  0.00  0.00     0.016 C 
HETATM   22  C   UNK N   1      27.233  40.634  57.164  0.00  0.00     0.019 C 
HETATM   23  C   UNK N   1      31.636  41.798  59.968  0.00  0.00     0.155 C 
HETATM   24  C   UNK N   1      29.101  42.703  61.369  0.00  0.00     0.022 C 
ENDROOT
BRANCH   4  25
HETATM   25  C   UNK N   1      30.381  45.515  58.977  0.00  0.00    -0.004 A 
HETATM   26  C   UNK N   1      31.347  45.631  57.994  0.00  0.00     0.151 A 
HETATM   27  O   UNK N   1      31.090  46.689  57.258  0.00  0.00    -0.334 OA
HETATM   28  C   UNK N   1      30.014  47.287  57.720  0.00  0.00     0.142 A 
HETATM   29  C   UNK N   1      29.535  46.594  58.811  0.00  0.00     0.036 A 
ENDBRANCH   4  25
BRANCH  10  30
HETATM   30  C   UNK N   1      28.379  40.697  54.340  0.00  0.00     0.117 C 
BRANCH  30  31
HETATM   31  C   UNK N   1      29.185  41.543  53.398  0.00  0.00     0.258 C 
HETATM   32  O   UNK N   1      30.346  41.822  53.666  0.00  0.00    -0.265 OA
BRANCH  31  33
HETATM   33  O   UNK N   1      28.600  42.013  52.265  0.00  0.00    -0.326 OA
HETATM   34  C   UNK N   1      28.199  43.320  52.092  0.00  0.00     0.213 C 
ENDBRANCH  31  33
ENDBRANCH  30  31
ENDBRANCH  10  30
TORSDOF 4
ENDMDL
MODEL 2
REMARK VINA RESULT:      -5.1      1.946      4.307
REMARK  4 active torsions:
REMARK  status: ('A' for Active; 'I' for Inactive)
REMARK    1  A    between atoms: C_4  and  C_30 
REMARK    2  A    between atoms: C_10  and  C_17 
REMARK    3  A    between atoms: C_17  and  C_18 
REMARK    4  A    between atoms: C_18  and  O_20 
ROOT
HETATM    1  O   UNK N   1      28.500  44.044  61.753  0.00  0.00    -0.265 OA
HETATM    2  C   UNK N   1      29.079  43.898  60.687  0.00  0.00     0.262 C 
HETATM    3  O   UNK N   1      30.427  44.047  60.648  0.00  0.00    -0.310 OA
HETATM    4  C   UNK N   1      31.237  44.073  59.517  0.00  0.00     0.178 C 
HETATM    5  C   UNK N   1      30.403  44.246  58.172  0.00  0.00     0.023 C 
HETATM    6  C   UNK N   1      29.117  43.346  58.194  0.00  0.00     0.103 C 
HETATM    7  O   UNK N   1      28.313  43.684  57.046  0.00  0.00    -0.368 OA
HETATM    8  C   UNK N   1      27.755  42.548  56.410  0.00  0.00     0.139 C 
HETATM    9  C   UNK N   1      28.863  41.738  55.649  0.00  0.00    -0.005 C 
HETATM   10  C   UNK N   1      28.183  40.343  55.281  0.00  0.00     0.021 C 
HETATM   11  C   UNK N   1      26.715  40.441  54.602  0.00  0.00     0.018 C 
HETATM   12  C   UNK N   1      26.731  40.353  53.048  0.00  0.00     0.023 C 
HETATM   13  C   UNK N   1      25.850  39.263  55.124  0.00  0.00     0.023 C 
HETATM   14  C   UNK N   1      25.945  41.741  54.909  0.00  0.00     0.137 C 
HETATM   15  C   UNK N   1      26.562  42.933  55.575  0.00  0.00     0.112 C 
HETATM   16  O   UNK N   1      24.808  41.870  54.474  0.00  0.00    -0.297 OA
HETATM   17  C   UNK N   1      30.093  41.547  56.692  0.00  0.00     0.028 C 
HETATM   18  C   UNK N   1      29.597  41.879  58.082  0.00  0.00    -0.049 C 
HETATM   19  C   UNK N   1      29.503  40.950  59.049  0.00  0.00     0.018 C 
HETATM   20  C   UNK N   1      31.367  42.426  56.522  0.00  0.00     0.011 C 
HETATM   21  C   UNK N   1      31.198  43.938  56.857  0.00  0.00     0.016 C 
HETATM   22  C   UNK N   1      29.316  42.451  54.345  0.00  0.00     0.019 C 
HETATM   23  C   UNK N   1      28.265  43.656  59.448  0.00  0.00     0.155 C 
HETATM   24  C   UNK N   1      29.999  45.751  58.100  0.00  0.00     0.022 C 
ENDROOT
BRANCH   4  25
HETATM   25  C   UNK N   1      32.246  42.957  59.653  0.00  0.00    -0.004 A 
HETATM   26  C   UNK N   1      32.135  41.818  60.430  0.00  0.00     0.151 A 
HETATM   27  O   UNK N   1      33.250  41.129  60.350  0.00  0.00    -0.334 OA
HETATM   28  C   UNK N   1      34.099  41.768  59.575  0.00  0.00     0.142 A 
HETATM   29  C   UNK N   1      33.519  42.932  59.120  0.00  0.00     0.036 A 
ENDBRANCH   4  25
BRANCH  10  30
HETATM   30  C   UNK N   1      29.174  39.408  54.486  0.00  0.00     0.117 C 
BRANCH  30  31
HETATM   31  C   UNK N   1      29.635  38.181  55.216  0.00  0.00     0.258 C 
HETATM   32  O   UNK N   1      29.485  38.097  56.428  0.00  0.00    -0.265 OA
BRANCH  31  33
HETATM   33  O   UNK N   1      30.242  37.184  54.520  0.00  0.00    -0.326 OA
HETATM   34  C   UNK N   1      31.007  36.196  55.100  0.00  0.00     0.213 C 
ENDBRANCH  31  33
ENDBRANCH  30  31
ENDBRANCH  10  30
TORSDOF 4
ENDMDL
MODEL 3
REMARK VINA RESULT:      -4.8      2.228      6.915
REMARK  4 active torsions:
REMARK  status: ('A' for Active; 'I' for Inactive)
REMARK    1  A    between atoms: C_4  and  C_30 
REMARK    2  A    between atoms: C_10  and  C_17 
REMARK    3  A    between atoms: C_17  and  C_18 
REMARK    4  A    between atoms: C_18  and  O_20 
ROOT
HETATM    1  O   UNK N   1      26.031  39.809  58.263  0.00  0.00    -0.265 OA
HETATM    2  C   UNK N   1      27.041  40.491  58.162  0.00  0.00     0.262 C 
HETATM    3  O   UNK N   1      27.963  40.161  57.223  0.00  0.00    -0.310 OA
HETATM    4  C   UNK N   1      29.229  40.714  57.059  0.00  0.00     0.178 C 
HETATM    5  C   UNK N   1      29.681  41.588  58.311  0.00  0.00     0.023 C 
HETATM    6  C   UNK N   1      28.497  42.481  58.824  0.00  0.00     0.103 C 
HETATM    7  O   UNK N   1      28.905  43.100  60.060  0.00  0.00    -0.368 OA
HETATM    8  C   UNK N   1      28.513  44.458  60.152  0.00  0.00     0.139 C 
HETATM    9  C   UNK N   1      29.370  45.351  59.188  0.00  0.00    -0.005 C 
HETATM   10  C   UNK N   1      28.616  46.754  59.136  0.00  0.00     0.021 C 
HETATM   11  C   UNK N   1      28.200  47.376  60.575  0.00  0.00     0.018 C 
HETATM   12  C   UNK N   1      29.210  48.425  61.124  0.00  0.00     0.023 C 
HETATM   13  C   UNK N   1      26.828  48.085  60.427  0.00  0.00     0.023 C 
HETATM   14  C   UNK N   1      28.059  46.342  61.710  0.00  0.00     0.137 C 
HETATM   15  C   UNK N   1      28.491  44.913  61.589  0.00  0.00     0.112 C 
HETATM   16  O   UNK N   1      27.698  46.725  62.815  0.00  0.00    -0.297 OA
HETATM   17  C   UNK N   1      29.356  44.611  57.742  0.00  0.00     0.028 C 
HETATM   18  C   UNK N   1      28.260  43.568  57.749  0.00  0.00    -0.049 C 
HETATM   19  C   UNK N   1      27.172  43.670  56.966  0.00  0.00     0.018 C 
HETATM   20  C   UNK N   1      30.623  43.829  57.285  0.00  0.00     0.011 C 
HETATM   21  C   UNK N   1      30.923  42.510  58.060  0.00  0.00     0.016 C 
HETATM   22  C   UNK N   1      30.816  45.561  59.717  0.00  0.00     0.019 C 
HETATM   23  C   UNK N   1      27.262  41.605  59.144  0.00  0.00     0.155 C 
HETATM   24  C   UNK N   1      30.104  40.575  59.420  0.00  0.00     0.022 C 
ENDROOT
BRANCH   4  25
HETATM   25  C   UNK N   1      29.299  41.284  55.663  0.00  0.00    -0.004 A 
HETATM   26  C   UNK N   1      28.242  41.689  54.869  0.00  0.00     0.151 A 
HETATM   27  O   UNK N   1      28.697  42.050  53.691  0.00  0.00    -0.334 OA
HETATM   28  C   UNK N   1      30.001  41.883  53.662  0.00  0.00     0.142 A 
HETATM   29  C   UNK N   1      30.429  41.392  54.875  0.00  0.00     0.036 A 
ENDBRANCH   4  25
BRANCH  10  30
HETATM   30  C   UNK N   1      29.372  47.783  58.210  0.00  0.00     0.117 C 
BRANCH  30  31
HETATM   31  C   UNK N   1      28.542  48.416  57.131  0.00  0.00     0.258 C 
HETATM   32  O   UNK N   1      27.399  48.027  56.930  0.00  0.00    -0.265 OA
BRANCH  31  33
HETATM   33  O   UNK N   1      29.086  49.402  56.370  0.00  0.00    -0.326 OA
HETATM   34  C   UNK N   1      30.396  49.816  56.469  0.00  0.00     0.213 C 
ENDBRANCH  31  33
ENDBRANCH  30  31
ENDBRANCH  10  30
TORSDOF 4
ENDMDL
MODEL 4
REMARK VINA RESULT:      -4.7     20.180     23.486
REMARK  4 active torsions:
REMARK  status: ('A' for Active; 'I' for Inactive)
REMARK    1  A    between atoms: C_4  and  C_30 
REMARK    2  A    between atoms: C_10  and  C_17 
REMARK    3  A    between atoms: C_17  and  C_18 
REMARK    4  A    between atoms: C_18  and  O_20 
ROOT
HETATM    1  O   UNK N   1      51.554  53.447  53.624  0.00  0.00    -0.265 OA
HETATM    2  C   UNK N   1      51.508  53.792  54.796  0.00  0.00     0.262 C 
HETATM    3  O   UNK N   1      51.639  55.108  55.097  0.00  0.00    -0.310 OA
HETATM    4  C   UNK N   1      51.768  55.671  56.363  0.00  0.00     0.178 C 
HETATM    5  C   UNK N   1      52.088  54.587  57.484  0.00  0.00     0.023 C 
HETATM    6  C   UNK N   1      51.210  53.302  57.284  0.00  0.00     0.103 C 
HETATM    7  O   UNK N   1      51.675  52.294  58.204  0.00  0.00    -0.368 OA
HETATM    8  C   UNK N   1      50.618  51.578  58.817  0.00  0.00     0.139 C 
HETATM    9  C   UNK N   1      49.873  52.477  59.865  0.00  0.00    -0.005 C 
HETATM   10  C   UNK N   1      48.533  51.688  60.216  0.00  0.00     0.021 C 
HETATM   11  C   UNK N   1      48.722  50.116  60.565  0.00  0.00     0.018 C 
HETATM   12  C   UNK N   1      48.791  49.813  62.091  0.00  0.00     0.023 C 
HETATM   13  C   UNK N   1      47.510  49.335  59.992  0.00  0.00     0.023 C 
HETATM   14  C   UNK N   1      49.995  49.472  59.983  0.00  0.00     0.137 C 
HETATM   15  C   UNK N   1      51.104  50.254  59.348  0.00  0.00     0.112 C 
HETATM   16  O   UNK N   1      50.185  48.276  60.160  0.00  0.00    -0.297 OA
HETATM   17  C   UNK N   1      49.558  53.887  59.120  0.00  0.00     0.028 C 
HETATM   18  C   UNK N   1      49.756  53.696  57.633  0.00  0.00    -0.049 C 
HETATM   19  C   UNK N   1      48.735  53.768  56.761  0.00  0.00     0.018 C 
HETATM   20  C   UNK N   1      50.431  55.130  59.464  0.00  0.00     0.011 C 
HETATM   21  C   UNK N   1      51.904  55.086  58.958  0.00  0.00     0.016 C 
HETATM   22  C   UNK N   1      50.707  52.681  61.159  0.00  0.00     0.019 C 
HETATM   23  C   UNK N   1      51.405  52.735  55.857  0.00  0.00     0.155 C 
HETATM   24  C   UNK N   1      53.599  54.231  57.327  0.00  0.00     0.022 C 
ENDROOT
BRANCH   4  25
HETATM   25  C   UNK N   1      50.629  56.646  56.545  0.00  0.00    -0.004 A 
HETATM   26  C   UNK N   1      49.461  56.717  55.808  0.00  0.00     0.151 A 
HETATM   27  O   UNK N   1      48.755  57.748  56.212  0.00  0.00    -0.334 OA
HETATM   28  C   UNK N   1      49.409  58.373  57.166  0.00  0.00     0.142 A 
HETATM   29  C   UNK N   1      50.602  57.726  57.406  0.00  0.00     0.036 A 
ENDBRANCH   4  25
BRANCH  10  30
HETATM   30  C   UNK N   1      47.668  52.462  61.285  0.00  0.00     0.117 C 
BRANCH  30  31
HETATM   31  C   UNK N   1      46.254  52.760  60.882  0.00  0.00     0.258 C 
HETATM   32  O   UNK N   1      46.030  53.503  59.935  0.00  0.00    -0.265 OA
BRANCH  31  33
HETATM   33  O   UNK N   1      45.233  52.218  61.598  0.00  0.00    -0.326 OA
HETATM   34  C   UNK N   1      45.410  51.340  62.644  0.00  0.00     0.213 C 
ENDBRANCH  31  33
ENDBRANCH  30  31
ENDBRANCH  10  30
TORSDOF 4
ENDMDL
MODEL 5
REMARK VINA RESULT:      -4.7     17.076     20.551
REMARK  4 active torsions:
REMARK  status: ('A' for Active; 'I' for Inactive)
REMARK    1  A    between atoms: C_4  and  C_30 
REMARK    2  A    between atoms: C_10  and  C_17 
REMARK    3  A    between atoms: C_17  and  C_18 
REMARK    4  A    between atoms: C_18  and  O_20 
ROOT
HETATM    1  O   UNK N   1      48.598  56.549  58.839  0.00  0.00    -0.265 OA
HETATM    2  C   UNK N   1      47.961  56.255  59.841  0.00  0.00     0.262 C 
HETATM    3  O   UNK N   1      47.111  57.171  60.368  0.00  0.00    -0.310 OA
HETATM    4  C   UNK N   1      46.424  57.083  61.574  0.00  0.00     0.178 C 
HETATM    5  C   UNK N   1      46.972  55.914  62.506  0.00  0.00     0.023 C 
HETATM    6  C   UNK N   1      47.252  54.618  61.667  0.00  0.00     0.103 C 
HETATM    7  O   UNK N   1      47.919  53.667  62.521  0.00  0.00    -0.368 OA
HETATM    8  C   UNK N   1      47.441  52.344  62.350  0.00  0.00     0.139 C 
HETATM    9  C   UNK N   1      46.004  52.189  62.960  0.00  0.00    -0.005 C 
HETATM   10  C   UNK N   1      45.464  50.794  62.409  0.00  0.00     0.021 C 
HETATM   11  C   UNK N   1      46.487  49.544  62.553  0.00  0.00     0.018 C 
HETATM   12  C   UNK N   1      46.229  48.659  63.807  0.00  0.00     0.023 C 
HETATM   13  C   UNK N   1      46.334  48.636  61.305  0.00  0.00     0.023 C 
HETATM   14  C   UNK N   1      47.975  49.934  62.652  0.00  0.00     0.137 C 
HETATM   15  C   UNK N   1      48.453  51.342  62.843  0.00  0.00     0.112 C 
HETATM   16  O   UNK N   1      48.815  49.046  62.713  0.00  0.00    -0.297 OA
HETATM   17  C   UNK N   1      45.127  53.434  62.395  0.00  0.00     0.028 C 
HETATM   18  C   UNK N   1      45.875  54.059  61.238  0.00  0.00    -0.049 C 
HETATM   19  C   UNK N   1      45.405  54.018  59.979  0.00  0.00     0.018 C 
HETATM   20  C   UNK N   1      44.824  54.632  63.344  0.00  0.00     0.011 C 
HETATM   21  C   UNK N   1      46.041  55.534  63.707  0.00  0.00     0.016 C 
HETATM   22  C   UNK N   1      46.028  52.155  64.513  0.00  0.00     0.019 C 
HETATM   23  C   UNK N   1      48.218  54.930  60.499  0.00  0.00     0.155 C 
HETATM   24  C   UNK N   1      48.302  56.442  63.130  0.00  0.00     0.022 C 
ENDROOT
BRANCH   4  25
HETATM   25  C   UNK N   1      44.949  57.188  61.267  0.00  0.00    -0.004 A 
HETATM   26  C   UNK N   1      44.339  57.062  60.032  0.00  0.00     0.151 A 
HETATM   27  O   UNK N   1      43.053  57.299  60.158  0.00  0.00    -0.334 OA
HETATM   28  C   UNK N   1      42.788  57.595  61.411  0.00  0.00     0.142 A 
HETATM   29  C   UNK N   1      43.950  57.550  62.150  0.00  0.00     0.036 A 
ENDBRANCH   4  25
BRANCH  10  30
HETATM   30  C   UNK N   1      44.017  50.478  62.953  0.00  0.00     0.117 C 
BRANCH  30  31
HETATM   31  C   UNK N   1      42.890  50.776  62.008  0.00  0.00     0.258 C 
HETATM   32  O   UNK N   1      42.027  51.586  62.319  0.00  0.00    -0.265 OA
BRANCH  31  33
HETATM   33  O   UNK N   1      42.827  50.114  60.822  0.00  0.00    -0.326 OA
HETATM   34  C   UNK N   1      41.695  49.487  60.350  0.00  0.00     0.213 C 
ENDBRANCH  31  33
ENDBRANCH  30  31
ENDBRANCH  10  30
TORSDOF 4
ENDMDL
MODEL 6
REMARK VINA RESULT:      -4.7      2.835      4.740
REMARK  4 active torsions:
REMARK  status: ('A' for Active; 'I' for Inactive)
REMARK    1  A    between atoms: C_4  and  C_30 
REMARK    2  A    between atoms: C_10  and  C_17 
REMARK    3  A    between atoms: C_17  and  C_18 
REMARK    4  A    between atoms: C_18  and  O_20 
ROOT
HETATM    1  O   UNK N   1      28.861  48.712  62.993  0.00  0.00    -0.265 OA
HETATM    2  C   UNK N   1      28.442  48.004  62.089  0.00  0.00     0.262 C 
HETATM    3  O   UNK N   1      27.688  48.568  61.112  0.00  0.00    -0.310 OA
HETATM    4  C   UNK N   1      27.001  47.910  60.097  0.00  0.00     0.178 C 
HETATM    5  C   UNK N   1      26.887  46.343  60.351  0.00  0.00     0.023 C 
HETATM    6  C   UNK N   1      28.247  45.764  60.879  0.00  0.00     0.103 C 
HETATM    7  O   UNK N   1      28.030  44.393  61.268  0.00  0.00    -0.368 OA
HETATM    8  C   UNK N   1      29.086  43.535  60.874  0.00  0.00     0.139 C 
HETATM    9  C   UNK N   1      29.069  43.309  59.322  0.00  0.00    -0.005 C 
HETATM   10  C   UNK N   1      30.470  42.629  58.982  0.00  0.00     0.021 C 
HETATM   11  C   UNK N   1      30.884  41.377  59.925  0.00  0.00     0.018 C 
HETATM   12  C   UNK N   1      30.548  39.986  59.312  0.00  0.00     0.023 C 
HETATM   13  C   UNK N   1      32.417  41.422  60.160  0.00  0.00     0.023 C 
HETATM   14  C   UNK N   1      30.212  41.362  61.313  0.00  0.00     0.137 C 
HETATM   15  C   UNK N   1      29.088  42.274  61.700  0.00  0.00     0.112 C 
HETATM   16  O   UNK N   1      30.510  40.476  62.104  0.00  0.00    -0.297 OA
HETATM   17  C   UNK N   1      28.938  44.779  58.644  0.00  0.00     0.028 C 
HETATM   18  C   UNK N   1      29.244  45.820  59.698  0.00  0.00    -0.049 C 
HETATM   19  C   UNK N   1      30.328  46.612  59.627  0.00  0.00     0.018 C 
HETATM   20  C   UNK N   1      27.563  45.219  58.061  0.00  0.00     0.011 C 
HETATM   21  C   UNK N   1      26.442  45.501  59.107  0.00  0.00     0.016 C 
HETATM   22  C   UNK N   1      27.917  42.364  58.881  0.00  0.00     0.019 C 
HETATM   23  C   UNK N   1      28.700  46.526  62.148  0.00  0.00     0.155 C 
HETATM   24  C   UNK N   1      25.774  46.156  61.429  0.00  0.00     0.022 C 
ENDROOT
BRANCH   4  25
HETATM   25  C   UNK N   1      27.522  48.435  58.780  0.00  0.00    -0.004 A 
HETATM   26  C   UNK N   1      26.943  48.290  57.533  0.00  0.00     0.151 A 
HETATM   27  O   UNK N   1      27.735  48.811  56.624  0.00  0.00    -0.334 OA
HETATM   28  C   UNK N   1      28.818  49.276  57.208  0.00  0.00     0.142 A 
HETATM   29  C   UNK N   1      28.739  49.053  58.566  0.00  0.00     0.036 A 
ENDBRANCH   4  25
BRANCH  10  30
HETATM   30  C   UNK N   1      30.604  42.316  57.442  0.00  0.00     0.117 C 
BRANCH  30  31
HETATM   31  C   UNK N   1      31.729  43.013  56.734  0.00  0.00     0.258 C 
HETATM   32  O   UNK N   1      32.345  43.910  57.296  0.00  0.00    -0.265 OA
BRANCH  31  33
HETATM   33  O   UNK N   1      32.033  42.654  55.459  0.00  0.00    -0.326 OA
HETATM   34  C   UNK N   1      31.249  41.827  54.685  0.00  0.00     0.213 C 
ENDBRANCH  31  33
ENDBRANCH  30  31
ENDBRANCH  10  30
TORSDOF 4
ENDMDL
MODEL 7
REMARK VINA RESULT:      -4.5     16.667     20.770
REMARK  4 active torsions:
REMARK  status: ('A' for Active; 'I' for Inactive)
REMARK    1  A    between atoms: C_4  and  C_30 
REMARK    2  A    between atoms: C_10  and  C_17 
REMARK    3  A    between atoms: C_17  and  C_18 
REMARK    4  A    between atoms: C_18  and  O_20 
ROOT
HETATM    1  O   UNK N   1      42.562  49.512  60.350  0.00  0.00    -0.265 OA
HETATM    2  C   UNK N   1      43.334  50.011  61.156  0.00  0.00     0.262 C 
HETATM    3  O   UNK N   1      44.448  49.322  61.510  0.00  0.00    -0.310 OA
HETATM    4  C   UNK N   1      45.354  49.649  62.513  0.00  0.00     0.178 C 
HETATM    5  C   UNK N   1      44.802  50.777  63.492  0.00  0.00     0.023 C 
HETATM    6  C   UNK N   1      44.086  51.915  62.682  0.00  0.00     0.103 C 
HETATM    7  O   UNK N   1      43.448  52.802  63.623  0.00  0.00    -0.368 OA
HETATM    8  C   UNK N   1      43.598  54.168  63.281  0.00  0.00     0.139 C 
HETATM    9  C   UNK N   1      45.073  54.644  63.524  0.00  0.00    -0.005 C 
HETATM   10  C   UNK N   1      45.183  56.057  62.795  0.00  0.00     0.021 C 
HETATM   11  C   UNK N   1      43.987  57.103  63.118  0.00  0.00     0.018 C 
HETATM   12  C   UNK N   1      44.333  58.134  64.231  0.00  0.00     0.023 C 
HETATM   13  C   UNK N   1      43.670  57.903  61.827  0.00  0.00     0.023 C 
HETATM   14  C   UNK N   1      42.669  56.454  63.585  0.00  0.00     0.137 C 
HETATM   15  C   UNK N   1      42.541  55.007  63.951  0.00  0.00     0.112 C 
HETATM   16  O   UNK N   1      41.701  57.173  63.801  0.00  0.00    -0.297 OA
HETATM   17  C   UNK N   1      46.035  53.536  62.828  0.00  0.00     0.028 C 
HETATM   18  C   UNK N   1      45.191  52.677  61.912  0.00  0.00    -0.049 C 
HETATM   19  C   UNK N   1      45.349  52.687  60.577  0.00  0.00     0.018 C 
HETATM   20  C   UNK N   1      46.778  52.509  63.734  0.00  0.00     0.011 C 
HETATM   21  C   UNK N   1      45.881  51.435  64.419  0.00  0.00     0.016 C 
HETATM   22  C   UNK N   1      45.389  54.817  65.035  0.00  0.00     0.019 C 
HETATM   23  C   UNK N   1      42.968  51.321  61.793  0.00  0.00     0.155 C 
HETATM   24  C   UNK N   1      43.781  50.073  64.438  0.00  0.00     0.022 C 
ENDROOT
BRANCH   4  25
HETATM   25  C   UNK N   1      46.713  49.792  61.871  0.00  0.00    -0.004 A 
HETATM   26  C   UNK N   1      46.993  49.920  60.522  0.00  0.00     0.151 A 
HETATM   27  O   UNK N   1      48.295  49.936  60.350  0.00  0.00    -0.334 OA
HETATM   28  C   UNK N   1      48.888  49.804  61.516  0.00  0.00     0.142 A 
HETATM   29  C   UNK N   1      47.936  49.697  62.506  0.00  0.00     0.036 A 
ENDBRANCH   4  25
BRANCH  10  30
HETATM   30  C   UNK N   1      46.620  56.686  62.964  0.00  0.00     0.117 C 
BRANCH  30  31
HETATM   31  C   UNK N   1      47.400  56.872  61.696  0.00  0.00     0.258 C 
HETATM   32  O   UNK N   1      48.393  57.588  61.687  0.00  0.00    -0.265 OA
BRANCH  31  33
HETATM   33  O   UNK N   1      46.973  56.260  60.560  0.00  0.00    -0.326 OA
HETATM   34  C   UNK N   1      47.765  55.444  59.782  0.00  0.00     0.213 C 
ENDBRANCH  31  33
ENDBRANCH  30  31
ENDBRANCH  10  30
TORSDOF 4
ENDMDL
MODEL 8
REMARK VINA RESULT:      -4.5      2.493      6.844
REMARK  4 active torsions:
REMARK  status: ('A' for Active; 'I' for Inactive)
REMARK    1  A    between atoms: C_4  and  C_30 
REMARK    2  A    between atoms: C_10  and  C_17 
REMARK    3  A    between atoms: C_17  and  C_18 
REMARK    4  A    between atoms: C_18  and  O_20 
ROOT
HETATM    1  O   UNK N   1      29.970  40.317  62.499  0.00  0.00    -0.265 OA
HETATM    2  C   UNK N   1      30.113  40.970  61.476  0.00  0.00     0.262 C 
HETATM    3  O   UNK N   1      30.287  40.315  60.300  0.00  0.00    -0.310 OA
HETATM    4  C   UNK N   1      30.615  40.873  59.069  0.00  0.00     0.178 C 
HETATM    5  C   UNK N   1      31.115  42.380  59.194  0.00  0.00     0.023 C 
HETATM    6  C   UNK N   1      30.220  43.182  60.205  0.00  0.00     0.103 C 
HETATM    7  O   UNK N   1      30.830  44.470  60.418  0.00  0.00    -0.368 OA
HETATM    8  C   UNK N   1      29.887  45.527  60.453  0.00  0.00     0.139 C 
HETATM    9  C   UNK N   1      29.318  45.810  59.018  0.00  0.00    -0.005 C 
HETATM   10  C   UNK N   1      28.054  46.754  59.248  0.00  0.00     0.021 C 
HETATM   11  C   UNK N   1      28.301  48.022  60.229  0.00  0.00     0.018 C 
HETATM   12  C   UNK N   1      28.616  49.349  59.478  0.00  0.00     0.023 C 
HETATM   13  C   UNK N   1      27.015  48.256  61.065  0.00  0.00     0.023 C 
HETATM   14  C   UNK N   1      29.466  47.853  61.224  0.00  0.00     0.137 C 
HETATM   15  C   UNK N   1      30.457  46.730  61.159  0.00  0.00     0.112 C 
HETATM   16  O   UNK N   1      29.686  48.745  62.033  0.00  0.00    -0.297 OA
HETATM   17  C   UNK N   1      28.883  44.370  58.403  0.00  0.00     0.028 C 
HETATM   18  C   UNK N   1      28.839  43.362  59.531  0.00  0.00    -0.049 C 
HETATM   19  C   UNK N   1      27.691  42.792  59.935  0.00  0.00     0.018 C 
HETATM   20  C   UNK N   1      29.796  43.704  57.332  0.00  0.00     0.011 C 
HETATM   21  C   UNK N   1      31.168  43.174  57.845  0.00  0.00     0.016 C 
HETATM   22  C   UNK N   1      30.348  46.538  58.113  0.00  0.00     0.019 C 
HETATM   23  C   UNK N   1      30.185  42.466  61.576  0.00  0.00     0.155 C 
HETATM   24  C   UNK N   1      32.582  42.310  59.721  0.00  0.00     0.022 C 
ENDROOT
BRANCH   4  25
HETATM   25  C   UNK N   1      29.517  40.511  58.097  0.00  0.00    -0.004 A 
HETATM   26  C   UNK N   1      28.278  39.975  58.396  0.00  0.00     0.151 A 
HETATM   27  O   UNK N   1      27.635  39.720  57.279  0.00  0.00    -0.334 OA
HETATM   28  C   UNK N   1      28.398  40.043  56.258  0.00  0.00     0.142 A 
HETATM   29  C   UNK N   1      29.600  40.534  56.719  0.00  0.00     0.036 A 
ENDBRANCH   4  25
BRANCH  10  30
HETATM   30  C   UNK N   1      27.370  47.150  57.883  0.00  0.00     0.117 C 
BRANCH  30  31
HETATM   31  C   UNK N   1      26.007  46.567  57.648  0.00  0.00     0.258 C 
HETATM   32  O   UNK N   1      25.084  46.844  58.403  0.00  0.00    -0.265 OA
BRANCH  31  33
HETATM   33  O   UNK N   1      25.823  45.712  56.607  0.00  0.00    -0.326 OA
HETATM   34  C   UNK N   1      25.570  44.366  56.754  0.00  0.00     0.213 C 
ENDBRANCH  31  33
ENDBRANCH  30  31
ENDBRANCH  10  30
TORSDOF 4
ENDMDL
MODEL 9
REMARK VINA RESULT:      -4.2     17.205     21.168
REMARK  4 active torsions:
REMARK  status: ('A' for Active; 'I' for Inactive)
REMARK    1  A    between atoms: C_4  and  C_30 
REMARK    2  A    between atoms: C_10  and  C_17 
REMARK    3  A    between atoms: C_17  and  C_18 
REMARK    4  A    between atoms: C_18  and  O_20 
ROOT
HETATM    1  O   UNK N   1      42.061  50.443  62.970  0.00  0.00    -0.265 OA
HETATM    2  C   UNK N   1      43.213  50.851  62.986  0.00  0.00     0.262 C 
HETATM    3  O   UNK N   1      44.225  49.953  63.081  0.00  0.00    -0.310 OA
HETATM    4  C   UNK N   1      45.576  50.226  63.266  0.00  0.00     0.178 C 
HETATM    5  C   UNK N   1      45.840  51.735  63.705  0.00  0.00     0.023 C 
HETATM    6  C   UNK N   1      44.948  52.721  62.871  0.00  0.00     0.103 C 
HETATM    7  O   UNK N   1      45.089  54.039  63.438  0.00  0.00    -0.368 OA
HETATM    8  C   UNK N   1      45.195  55.053  62.453  0.00  0.00     0.139 C 
HETATM    9  C   UNK N   1      46.591  54.991  61.740  0.00  0.00    -0.005 C 
HETATM   10  C   UNK N   1      46.450  55.931  60.461  0.00  0.00     0.021 C 
HETATM   11  C   UNK N   1      45.806  57.393  60.738  0.00  0.00     0.018 C 
HETATM   12  C   UNK N   1      46.861  58.523  60.919  0.00  0.00     0.023 C 
HETATM   13  C   UNK N   1      44.917  57.778  59.526  0.00  0.00     0.023 C 
HETATM   14  C   UNK N   1      44.921  57.482  61.998  0.00  0.00     0.137 C 
HETATM   15  C   UNK N   1      44.835  56.398  63.029  0.00  0.00     0.112 C 
HETATM   16  O   UNK N   1      44.358  58.539  62.249  0.00  0.00    -0.297 OA
HETATM   17  C   UNK N   1      46.824  53.439  61.318  0.00  0.00     0.028 C 
HETATM   18  C   UNK N   1      45.502  52.711  61.427  0.00  0.00    -0.049 C 
HETATM   19  C   UNK N   1      44.867  52.218  60.349  0.00  0.00     0.018 C 
HETATM   20  C   UNK N   1      47.807  52.571  62.157  0.00  0.00     0.011 C 
HETATM   21  C   UNK N   1      47.331  52.204  63.595  0.00  0.00     0.016 C 
HETATM   22  C   UNK N   1      47.735  55.521  62.647  0.00  0.00     0.019 C 
HETATM   23  C   UNK N   1      43.455  52.333  62.997  0.00  0.00     0.155 C 
HETATM   24  C   UNK N   1      45.462  51.821  65.216  0.00  0.00     0.022 C 
ENDROOT
BRANCH   4  25
HETATM   25  C   UNK N   1      46.327  49.627  62.101  0.00  0.00    -0.004 A 
HETATM   26  C   UNK N   1      47.689  49.405  62.007  0.00  0.00     0.151 A 
HETATM   27  O   UNK N   1      47.971  48.947  60.809  0.00  0.00    -0.334 OA
HETATM   28  C   UNK N   1      46.866  48.874  60.101  0.00  0.00     0.142 A 
HETATM   29  C   UNK N   1      45.802  49.303  60.865  0.00  0.00     0.036 A 
ENDBRANCH   4  25
BRANCH  10  30
HETATM   30  C   UNK N   1      47.793  55.991  59.635  0.00  0.00     0.117 C 
BRANCH  30  31
HETATM   31  C   UNK N   1      47.707  55.496  58.221  0.00  0.00     0.258 C 
HETATM   32  O   UNK N   1      47.223  56.209  57.351  0.00  0.00    -0.265 OA
BRANCH  31  33
HETATM   33  O   UNK N   1      48.146  54.243  57.929  0.00  0.00    -0.326 OA
HETATM   34  C   UNK N   1      49.337  53.720  58.385  0.00  0.00     0.213 C 
ENDBRANCH  31  33
ENDBRANCH  30  31
ENDBRANCH  10  30
TORSDOF 4
ENDMDL
