MODEL 1
REMARK VINA RESULT:      -7.6      0.000      0.000
REMARK  11 active torsions:
REMARK  status: ('A' for Active; 'I' for Inactive)
REMARK    1  A    between atoms: C_2  and  O_3 
REMARK    2  A    between atoms: C_2  and  C_5 
REMARK    3  A    between atoms: C_6  and  C_7 
REMARK    4  A    between atoms: C_9  and  O_10 
REMARK    5  A    between atoms: C_12  and  O_13 
REMARK    6  A    between atoms: O_13  and  C_14 
REMARK    7  A    between atoms: C_16  and  C_26 
REMARK    8  A    between atoms: C_17  and  O_18 
REMARK    9  A    between atoms: C_20  and  O_21 
REMARK   10  A    between atoms: C_23  and  O_24 
REMARK   11  A    between atoms: C_26  and  O_27 
ROOT
HETATM    1  C   UNK N   1      40.940  44.460  46.478  0.00  0.00     0.298 C 
HETATM    2  O   UNK N   1      41.837  43.512  47.043  0.00  0.00    -0.348 OA
HETATM    3  C   UNK N   1      42.161  42.504  46.091  0.00  0.00     0.179 C 
HETATM    4  C   UNK N   1      42.905  43.117  44.874  0.00  0.00     0.180 C 
HETATM    5  C   UNK N   1      42.025  44.203  44.237  0.00  0.00     0.183 C 
HETATM    6  C   UNK N   1      41.619  45.211  45.319  0.00  0.00     0.205 C 
ENDROOT
BRANCH   1   7
HETATM    7  O   UNK N   1      40.565  45.391  47.430  0.00  0.00    -0.315 OA
BRANCH   7   8
HETATM    8  C   UNK N   1      40.932  45.384  48.742  0.00  0.00     0.105 A 
HETATM    9  C   UNK N   1      42.094  46.085  49.128  0.00  0.00     0.099 A 
HETATM   10  C   UNK N   1      42.468  46.133  50.479  0.00  0.00     0.051 A 
HETATM   11  C   UNK N   1      41.675  45.522  51.456  0.00  0.00    -0.033 A 
HETATM   12  C   UNK N   1      40.537  44.796  51.064  0.00  0.00     0.014 A 
HETATM   13  C   UNK N   1      40.170  44.722  49.722  0.00  0.00     0.040 A 
BRANCH   9  14
HETATM   14  O   UNK N   1      42.846  46.739  48.219  0.00  0.00    -0.358 OA
HETATM   15  H   UNK N   1      43.053  47.682  48.301  0.00  0.00     0.218 HD
ENDBRANCH   9  14
BRANCH  11  16
HETATM   16  C   UNK N   1      42.062  45.616  52.887  0.00  0.00     0.017 C 
HETATM   17  C   UNK N   1      42.007  44.595  53.773  0.00  0.00     0.083 C 
BRANCH  17  18
HETATM   18  C   UNK N   1      41.371  43.273  53.518  0.00  0.00     0.282 C 
HETATM   19  O   UNK N   1      42.031  42.385  52.999  0.00  0.00    -0.260 OA
BRANCH  18  20
HETATM   20  O   UNK N   1      40.128  43.008  54.002  0.00  0.00    -0.323 OA
HETATM   21  C   UNK N   1      39.101  42.472  53.257  0.00  0.00     0.213 C 
ENDBRANCH  18  20
ENDBRANCH  17  18
ENDBRANCH  11  16
ENDBRANCH   7   8
ENDBRANCH   1   7
BRANCH   6  22
HETATM   22  O   UNK N   1      40.772  46.201  44.789  0.00  0.00    -0.388 OA
HETATM   23  H   UNK N   1      40.938  46.252  43.811  0.00  0.00     0.210 HD
ENDBRANCH   6  22
BRANCH   3  24
HETATM   24  C   UNK N   1      43.042  41.446  46.768  0.00  0.00     0.198 C 
BRANCH  24  25
HETATM   25  O   UNK N   1      44.392  41.720  46.517  0.00  0.00    -0.398 OA
HETATM   26  H   UNK N   1      44.425  42.655  46.188  0.00  0.00     0.209 HD
ENDBRANCH  24  25
ENDBRANCH   3  24
BRANCH   5  27
HETATM   27  O   UNK N   1      42.718  44.869  43.214  0.00  0.00    -0.390 OA
HETATM   28  H   UNK N   1      43.686  44.761  43.402  0.00  0.00     0.210 HD
ENDBRANCH   5  27
BRANCH   4  29
HETATM   29  O   UNK N   1      43.186  42.115  43.930  0.00  0.00    -0.390 OA
HETATM   30  H   UNK N   1      43.998  42.403  43.435  0.00  0.00     0.210 HD
ENDBRANCH   4  29
TORSDOF 11
ENDMDL
MODEL 2
REMARK VINA RESULT:      -6.7      3.085      5.297
REMARK  11 active torsions:
REMARK  status: ('A' for Active; 'I' for Inactive)
REMARK    1  A    between atoms: C_2  and  O_3 
REMARK    2  A    between atoms: C_2  and  C_5 
REMARK    3  A    between atoms: C_6  and  C_7 
REMARK    4  A    between atoms: C_9  and  O_10 
REMARK    5  A    between atoms: C_12  and  O_13 
REMARK    6  A    between atoms: O_13  and  C_14 
REMARK    7  A    between atoms: C_16  and  C_26 
REMARK    8  A    between atoms: C_17  and  O_18 
REMARK    9  A    between atoms: C_20  and  O_21 
REMARK   10  A    between atoms: C_23  and  O_24 
REMARK   11  A    between atoms: C_26  and  O_27 
ROOT
HETATM    1  C   UNK N   1      39.511  47.433  45.700  0.00  0.00     0.298 C 
HETATM    2  O   UNK N   1      38.723  47.849  44.592  0.00  0.00    -0.348 OA
HETATM    3  C   UNK N   1      38.753  49.267  44.464  0.00  0.00     0.179 C 
HETATM    4  C   UNK N   1      40.194  49.761  44.167  0.00  0.00     0.180 C 
HETATM    5  C   UNK N   1      41.132  49.297  45.292  0.00  0.00     0.183 C 
HETATM    6  C   UNK N   1      40.992  47.778  45.460  0.00  0.00     0.205 C 
ENDROOT
BRANCH   1   7
HETATM    7  O   UNK N   1      39.415  46.062  45.868  0.00  0.00    -0.315 OA
BRANCH   7   8
HETATM    8  C   UNK N   1      39.604  45.387  47.036  0.00  0.00     0.105 A 
HETATM    9  C   UNK N   1      40.659  44.454  47.119  0.00  0.00     0.099 A 
HETATM   10  C   UNK N   1      40.907  43.780  48.324  0.00  0.00     0.051 A 
HETATM   11  C   UNK N   1      40.137  44.053  49.459  0.00  0.00    -0.033 A 
HETATM   12  C   UNK N   1      39.065  44.958  49.364  0.00  0.00     0.014 A 
HETATM   13  C   UNK N   1      38.797  45.615  48.165  0.00  0.00     0.040 A 
BRANCH   9  14
HETATM   14  O   UNK N   1      41.461  44.214  46.061  0.00  0.00    -0.358 OA
HETATM   15  H   UNK N   1      42.357  43.860  46.161  0.00  0.00     0.218 HD
ENDBRANCH   9  14
BRANCH  11  16
HETATM   16  C   UNK N   1      40.437  43.361  50.739  0.00  0.00     0.017 C 
HETATM   17  C   UNK N   1      41.168  43.884  51.750  0.00  0.00     0.083 C 
BRANCH  17  18
HETATM   18  C   UNK N   1      41.954  45.146  51.675  0.00  0.00     0.282 C 
HETATM   19  O   UNK N   1      42.081  45.828  52.682  0.00  0.00    -0.260 OA
BRANCH  18  20
HETATM   20  O   UNK N   1      42.653  45.450  50.550  0.00  0.00    -0.323 OA
HETATM   21  C   UNK N   1      42.571  46.655  49.886  0.00  0.00     0.213 C 
ENDBRANCH  18  20
ENDBRANCH  17  18
ENDBRANCH  11  16
ENDBRANCH   7   8
ENDBRANCH   1   7
BRANCH   6  22
HETATM   22  O   UNK N   1      41.800  47.315  46.513  0.00  0.00    -0.388 OA
HETATM   23  H   UNK N   1      41.236  46.750  47.104  0.00  0.00     0.210 HD
ENDBRANCH   6  22
BRANCH   3  24
HETATM   24  C   UNK N   1      37.809  49.684  43.329  0.00  0.00     0.198 C 
BRANCH  24  25
HETATM   25  O   UNK N   1      38.451  49.527  42.095  0.00  0.00    -0.398 OA
HETATM   26  H   UNK N   1      38.124  50.266  41.519  0.00  0.00     0.209 HD
ENDBRANCH  24  25
ENDBRANCH   3  24
BRANCH   5  27
HETATM   27  O   UNK N   1      42.466  49.613  44.992  0.00  0.00    -0.390 OA
HETATM   28  H   UNK N   1      42.451  50.448  44.454  0.00  0.00     0.210 HD
ENDBRANCH   5  27
BRANCH   4  29
HETATM   29  O   UNK N   1      40.212  51.163  44.077  0.00  0.00    -0.390 OA
HETATM   30  H   UNK N   1      39.847  51.401  43.185  0.00  0.00     0.210 HD
ENDBRANCH   4  29
TORSDOF 11
ENDMDL
MODEL 3
REMARK VINA RESULT:      -6.1      3.948      7.509
REMARK  11 active torsions:
REMARK  status: ('A' for Active; 'I' for Inactive)
REMARK    1  A    between atoms: C_2  and  O_3 
REMARK    2  A    between atoms: C_2  and  C_5 
REMARK    3  A    between atoms: C_6  and  C_7 
REMARK    4  A    between atoms: C_9  and  O_10 
REMARK    5  A    between atoms: C_12  and  O_13 
REMARK    6  A    between atoms: O_13  and  C_14 
REMARK    7  A    between atoms: C_16  and  C_26 
REMARK    8  A    between atoms: C_17  and  O_18 
REMARK    9  A    between atoms: C_20  and  O_21 
REMARK   10  A    between atoms: C_23  and  O_24 
REMARK   11  A    between atoms: C_26  and  O_27 
ROOT
HETATM    1  C   UNK N   1      41.110  46.008  47.358  0.00  0.00     0.298 C 
HETATM    2  O   UNK N   1      40.959  45.323  46.121  0.00  0.00    -0.348 OA
HETATM    3  C   UNK N   1      41.929  44.286  46.005  0.00  0.00     0.179 C 
HETATM    4  C   UNK N   1      41.722  43.215  47.109  0.00  0.00     0.180 C 
HETATM    5  C   UNK N   1      41.807  43.887  48.489  0.00  0.00     0.183 C 
HETATM    6  C   UNK N   1      40.817  45.057  48.533  0.00  0.00     0.205 C 
ENDROOT
BRANCH   1   7
HETATM    7  O   UNK N   1      40.219  47.064  47.432  0.00  0.00    -0.315 OA
BRANCH   7   8
HETATM    8  C   UNK N   1      40.202  48.153  46.613  0.00  0.00     0.105 A 
HETATM    9  C   UNK N   1      41.364  48.470  45.878  0.00  0.00     0.099 A 
HETATM   10  C   UNK N   1      41.359  49.556  44.991  0.00  0.00     0.051 A 
HETATM   11  C   UNK N   1      40.195  50.309  44.800  0.00  0.00    -0.033 A 
HETATM   12  C   UNK N   1      39.049  50.012  45.559  0.00  0.00     0.014 A 
HETATM   13  C   UNK N   1      39.052  48.948  46.459  0.00  0.00     0.040 A 
BRANCH   9  14
HETATM   14  O   UNK N   1      42.484  47.726  45.991  0.00  0.00    -0.358 OA
HETATM   15  H   UNK N   1      42.996  47.682  46.812  0.00  0.00     0.218 HD
ENDBRANCH   9  14
BRANCH  11  16
HETATM   16  C   UNK N   1      40.194  51.432  43.828  0.00  0.00     0.017 C 
HETATM   17  C   UNK N   1      39.550  51.425  42.637  0.00  0.00     0.083 C 
BRANCH  17  18
HETATM   18  C   UNK N   1      38.908  50.234  42.017  0.00  0.00     0.282 C 
HETATM   19  O   UNK N   1      39.614  49.369  41.518  0.00  0.00    -0.260 OA
BRANCH  18  20
HETATM   20  O   UNK N   1      37.570  50.033  42.148  0.00  0.00    -0.323 OA
HETATM   21  C   UNK N   1      37.002  48.898  42.684  0.00  0.00     0.213 C 
ENDBRANCH  18  20
ENDBRANCH  17  18
ENDBRANCH  11  16
ENDBRANCH   7   8
ENDBRANCH   1   7
BRANCH   6  22
HETATM   22  O   UNK N   1      40.894  45.732  49.764  0.00  0.00    -0.388 OA
HETATM   23  H   UNK N   1      39.972  45.984  50.032  0.00  0.00     0.210 HD
ENDBRANCH   6  22
BRANCH   3  24
HETATM   24  C   UNK N   1      41.804  43.643  44.617  0.00  0.00     0.198 C 
BRANCH  24  25
HETATM   25  O   UNK N   1      43.013  43.028  44.268  0.00  0.00    -0.398 OA
HETATM   26  H   UNK N   1      43.719  43.504  44.778  0.00  0.00     0.209 HD
ENDBRANCH  24  25
ENDBRANCH   3  24
BRANCH   5  27
HETATM   27  O   UNK N   1      41.497  42.972  49.507  0.00  0.00    -0.390 OA
HETATM   28  H   UNK N   1      40.636  43.265  49.907  0.00  0.00     0.210 HD
ENDBRANCH   5  27
BRANCH   4  29
HETATM   29  O   UNK N   1      42.707  42.219  47.001  0.00  0.00    -0.390 OA
HETATM   30  H   UNK N   1      43.571  42.681  46.841  0.00  0.00     0.210 HD
ENDBRANCH   4  29
TORSDOF 11
ENDMDL
MODEL 4
REMARK VINA RESULT:      -6.0      2.373      3.890
REMARK  11 active torsions:
REMARK  status: ('A' for Active; 'I' for Inactive)
REMARK    1  A    between atoms: C_2  and  O_3 
REMARK    2  A    between atoms: C_2  and  C_5 
REMARK    3  A    between atoms: C_6  and  C_7 
REMARK    4  A    between atoms: C_9  and  O_10 
REMARK    5  A    between atoms: C_12  and  O_13 
REMARK    6  A    between atoms: O_13  and  C_14 
REMARK    7  A    between atoms: C_16  and  C_26 
REMARK    8  A    between atoms: C_17  and  O_18 
REMARK    9  A    between atoms: C_20  and  O_21 
REMARK   10  A    between atoms: C_23  and  O_24 
REMARK   11  A    between atoms: C_26  and  O_27 
ROOT
HETATM    1  C   UNK N   1      40.274  45.878  46.576  0.00  0.00     0.298 C 
HETATM    2  O   UNK N   1      41.324  46.490  47.315  0.00  0.00    -0.348 OA
HETATM    3  C   UNK N   1      42.052  47.394  46.489  0.00  0.00     0.179 C 
HETATM    4  C   UNK N   1      41.141  48.554  46.007  0.00  0.00     0.180 C 
HETATM    5  C   UNK N   1      39.938  47.973  45.248  0.00  0.00     0.183 C 
HETATM    6  C   UNK N   1      39.244  46.935  46.138  0.00  0.00     0.205 C 
ENDROOT
BRANCH   1   7
HETATM    7  O   UNK N   1      39.620  44.943  47.360  0.00  0.00    -0.315 OA
BRANCH   7   8
HETATM    8  C   UNK N   1      40.115  44.359  48.486  0.00  0.00     0.105 A 
HETATM    9  C   UNK N   1      41.318  43.626  48.400  0.00  0.00     0.099 A 
HETATM   10  C   UNK N   1      41.875  43.055  49.553  0.00  0.00     0.051 A 
HETATM   11  C   UNK N   1      41.268  43.239  50.800  0.00  0.00    -0.033 A 
HETATM   12  C   UNK N   1      40.052  43.941  50.877  0.00  0.00     0.014 A 
HETATM   13  C   UNK N   1      39.478  44.492  49.733  0.00  0.00     0.040 A 
BRANCH   9  14
HETATM   14  O   UNK N   1      41.964  43.484  47.225  0.00  0.00    -0.358 OA
HETATM   15  H   UNK N   1      41.649  42.887  46.530  0.00  0.00     0.218 HD
ENDBRANCH   9  14
BRANCH  11  16
HETATM   16  C   UNK N   1      41.891  42.662  52.018  0.00  0.00     0.017 C 
HETATM   17  C   UNK N   1      41.665  43.091  53.281  0.00  0.00     0.083 C 
BRANCH  17  18
HETATM   18  C   UNK N   1      40.918  44.325  53.646  0.00  0.00     0.282 C 
HETATM   19  O   UNK N   1      39.742  44.235  53.971  0.00  0.00    -0.260 OA
BRANCH  18  20
HETATM   20  O   UNK N   1      41.573  45.509  53.772  0.00  0.00    -0.323 OA
HETATM   21  C   UNK N   1      42.415  46.038  52.818  0.00  0.00     0.213 C 
ENDBRANCH  18  20
ENDBRANCH  17  18
ENDBRANCH  11  16
ENDBRANCH   7   8
ENDBRANCH   1   7
BRANCH   6  22
HETATM   22  O   UNK N   1      38.162  46.341  45.464  0.00  0.00    -0.388 OA
HETATM   23  H   UNK N   1      38.306  46.463  44.489  0.00  0.00     0.210 HD
ENDBRANCH   6  22
BRANCH   3  24
HETATM   24  C   UNK N   1      43.238  47.952  47.287  0.00  0.00     0.198 C 
BRANCH  24  25
HETATM   25  O   UNK N   1      42.981  47.839  48.659  0.00  0.00    -0.398 OA
HETATM   26  H   UNK N   1      43.178  48.730  49.049  0.00  0.00     0.209 HD
ENDBRANCH  24  25
ENDBRANCH   3  24
BRANCH   5  27
HETATM   27  O   UNK N   1      39.026  48.985  44.910  0.00  0.00    -0.390 OA
HETATM   28  H   UNK N   1      38.302  48.960  45.589  0.00  0.00     0.210 HD
ENDBRANCH   5  27
BRANCH   4  29
HETATM   29  O   UNK N   1      41.866  49.416  45.167  0.00  0.00    -0.390 OA
HETATM   30  H   UNK N   1      42.633  48.896  44.811  0.00  0.00     0.210 HD
ENDBRANCH   4  29
TORSDOF 11
ENDMDL
MODEL 5
REMARK VINA RESULT:      -6.0     14.383     16.139
REMARK  11 active torsions:
REMARK  status: ('A' for Active; 'I' for Inactive)
REMARK    1  A    between atoms: C_2  and  O_3 
REMARK    2  A    between atoms: C_2  and  C_5 
REMARK    3  A    between atoms: C_6  and  C_7 
REMARK    4  A    between atoms: C_9  and  O_10 
REMARK    5  A    between atoms: C_12  and  O_13 
REMARK    6  A    between atoms: O_13  and  C_14 
REMARK    7  A    between atoms: C_16  and  C_26 
REMARK    8  A    between atoms: C_17  and  O_18 
REMARK    9  A    between atoms: C_20  and  O_21 
REMARK   10  A    between atoms: C_23  and  O_24 
REMARK   11  A    between atoms: C_26  and  O_27 
ROOT
HETATM    1  C   UNK N   1      48.808  56.772  39.340  0.00  0.00     0.298 C 
HETATM    2  O   UNK N   1      47.885  57.689  39.912  0.00  0.00    -0.348 OA
HETATM    3  C   UNK N   1      46.872  58.030  38.970  0.00  0.00     0.179 C 
HETATM    4  C   UNK N   1      46.040  56.779  38.582  0.00  0.00     0.180 C 
HETATM    5  C   UNK N   1      46.977  55.705  38.008  0.00  0.00     0.183 C 
HETATM    6  C   UNK N   1      48.105  55.442  39.013  0.00  0.00     0.205 C 
ENDROOT
BRANCH   1   7
HETATM    7  O   UNK N   1      49.833  56.505  40.231  0.00  0.00    -0.315 OA
BRANCH   7   8
HETATM    8  C   UNK N   1      49.682  56.098  41.522  0.00  0.00     0.105 A 
HETATM    9  C   UNK N   1      50.087  54.793  41.876  0.00  0.00     0.099 A 
HETATM   10  C   UNK N   1      49.987  54.364  43.207  0.00  0.00     0.051 A 
HETATM   11  C   UNK N   1      49.524  55.235  44.199  0.00  0.00    -0.033 A 
HETATM   12  C   UNK N   1      49.090  56.523  43.838  0.00  0.00     0.014 A 
HETATM   13  C   UNK N   1      49.163  56.950  42.513  0.00  0.00     0.040 A 
BRANCH   9  14
HETATM   14  O   UNK N   1      50.598  53.949  40.956  0.00  0.00    -0.358 OA
HETATM   15  H   UNK N   1      51.548  53.777  40.882  0.00  0.00     0.218 HD
ENDBRANCH   9  14
BRANCH  11  16
HETATM   16  C   UNK N   1      49.462  54.780  45.612  0.00  0.00     0.017 C 
HETATM   17  C   UNK N   1      50.252  55.240  46.610  0.00  0.00     0.083 C 
BRANCH  17  18
HETATM   18  C   UNK N   1      51.436  56.123  46.427  0.00  0.00     0.282 C 
HETATM   19  O   UNK N   1      51.602  57.063  47.192  0.00  0.00    -0.260 OA
BRANCH  18  20
HETATM   20  O   UNK N   1      52.401  55.796  45.527  0.00  0.00    -0.323 OA
HETATM   21  C   UNK N   1      52.916  56.663  44.588  0.00  0.00     0.213 C 
ENDBRANCH  18  20
ENDBRANCH  17  18
ENDBRANCH  11  16
ENDBRANCH   7   8
ENDBRANCH   1   7
BRANCH   6  22
HETATM   22  O   UNK N   1      49.015  54.496  38.509  0.00  0.00    -0.388 OA
HETATM   23  H   UNK N   1      49.667  54.286  39.228  0.00  0.00     0.210 HD
ENDBRANCH   6  22
BRANCH   3  24
HETATM   24  C   UNK N   1      45.960  59.100  39.586  0.00  0.00     0.198 C 
BRANCH  24  25
HETATM   25  O   UNK N   1      46.360  59.364  40.901  0.00  0.00    -0.398 OA
HETATM   26  H   UNK N   1      46.255  58.510  41.396  0.00  0.00     0.209 HD
ENDBRANCH  24  25
ENDBRANCH   3  24
BRANCH   5  27
HETATM   27  O   UNK N   1      46.278  54.512  37.766  0.00  0.00    -0.390 OA
HETATM   28  H   UNK N   1      46.939  53.852  37.430  0.00  0.00     0.210 HD
ENDBRANCH   5  27
BRANCH   4  29
HETATM   29  O   UNK N   1      45.070  57.127  37.627  0.00  0.00    -0.390 OA
HETATM   30  H   UNK N   1      45.506  57.741  36.980  0.00  0.00     0.210 HD
ENDBRANCH   4  29
TORSDOF 11
ENDMDL
MODEL 6
REMARK VINA RESULT:      -5.9     15.438     17.643
REMARK  11 active torsions:
REMARK  status: ('A' for Active; 'I' for Inactive)
REMARK    1  A    between atoms: C_2  and  O_3 
REMARK    2  A    between atoms: C_2  and  C_5 
REMARK    3  A    between atoms: C_6  and  C_7 
REMARK    4  A    between atoms: C_9  and  O_10 
REMARK    5  A    between atoms: C_12  and  O_13 
REMARK    6  A    between atoms: O_13  and  C_14 
REMARK    7  A    between atoms: C_16  and  C_26 
REMARK    8  A    between atoms: C_17  and  O_18 
REMARK    9  A    between atoms: C_20  and  O_21 
REMARK   10  A    between atoms: C_23  and  O_24 
REMARK   11  A    between atoms: C_26  and  O_27 
ROOT
HETATM    1  C   UNK N   1      27.656  54.186  40.743  0.00  0.00     0.298 C 
HETATM    2  O   UNK N   1      27.602  52.766  40.791  0.00  0.00    -0.348 OA
HETATM    3  C   UNK N   1      26.254  52.315  40.698  0.00  0.00     0.179 C 
HETATM    4  C   UNK N   1      25.634  52.716  39.333  0.00  0.00     0.180 C 
HETATM    5  C   UNK N   1      25.709  54.242  39.170  0.00  0.00     0.183 C 
HETATM    6  C   UNK N   1      27.161  54.692  39.375  0.00  0.00     0.205 C 
ENDROOT
BRANCH   1   7
HETATM    7  O   UNK N   1      28.958  54.622  40.913  0.00  0.00    -0.315 OA
BRANCH   7   8
HETATM    8  C   UNK N   1      29.784  54.285  41.943  0.00  0.00     0.105 A 
HETATM    9  C   UNK N   1      30.670  53.200  41.777  0.00  0.00     0.099 A 
HETATM   10  C   UNK N   1      31.565  52.862  42.803  0.00  0.00     0.051 A 
HETATM   11  C   UNK N   1      31.613  53.618  43.978  0.00  0.00    -0.033 A 
HETATM   12  C   UNK N   1      30.705  54.677  44.154  0.00  0.00     0.014 A 
HETATM   13  C   UNK N   1      29.797  55.006  43.150  0.00  0.00     0.040 A 
BRANCH   9  14
HETATM   14  O   UNK N   1      30.695  52.490  40.630  0.00  0.00    -0.358 OA
HETATM   15  H   UNK N   1      31.281  51.729  40.505  0.00  0.00     0.218 HD
ENDBRANCH   9  14
BRANCH  11  16
HETATM   16  C   UNK N   1      32.593  53.273  45.039  0.00  0.00     0.017 C 
HETATM   17  C   UNK N   1      33.658  54.032  45.388  0.00  0.00     0.083 C 
BRANCH  17  18
HETATM   18  C   UNK N   1      34.136  55.229  44.644  0.00  0.00     0.282 C 
HETATM   19  O   UNK N   1      34.557  55.093  43.504  0.00  0.00    -0.260 OA
BRANCH  18  20
HETATM   20  O   UNK N   1      33.958  56.473  45.163  0.00  0.00    -0.323 OA
HETATM   21  C   UNK N   1      34.404  56.869  46.404  0.00  0.00     0.213 C 
ENDBRANCH  18  20
ENDBRANCH  17  18
ENDBRANCH  11  16
ENDBRANCH   7   8
ENDBRANCH   1   7
BRANCH   6  22
HETATM   22  O   UNK N   1      27.269  56.091  39.281  0.00  0.00    -0.388 OA
HETATM   23  H   UNK N   1      28.147  56.355  39.662  0.00  0.00     0.210 HD
ENDBRANCH   6  22
BRANCH   3  24
HETATM   24  C   UNK N   1      26.228  50.790  40.861  0.00  0.00     0.198 C 
BRANCH  24  25
HETATM   25  O   UNK N   1      25.059  50.403  41.528  0.00  0.00    -0.398 OA
HETATM   26  H   UNK N   1      24.952  51.038  42.283  0.00  0.00     0.209 HD
ENDBRANCH  24  25
ENDBRANCH   3  24
BRANCH   5  27
HETATM   27  O   UNK N   1      25.276  54.628  37.892  0.00  0.00    -0.390 OA
HETATM   28  H   UNK N   1      25.632  55.540  37.729  0.00  0.00     0.210 HD
ENDBRANCH   5  27
BRANCH   4  29
HETATM   29  O   UNK N   1      24.295  52.294  39.272  0.00  0.00    -0.390 OA
HETATM   30  H   UNK N   1      23.889  52.489  40.157  0.00  0.00     0.210 HD
ENDBRANCH   4  29
TORSDOF 11
ENDMDL
MODEL 7
REMARK VINA RESULT:      -5.8     13.964     16.185
REMARK  11 active torsions:
REMARK  status: ('A' for Active; 'I' for Inactive)
REMARK    1  A    between atoms: C_2  and  O_3 
REMARK    2  A    between atoms: C_2  and  C_5 
REMARK    3  A    between atoms: C_6  and  C_7 
REMARK    4  A    between atoms: C_9  and  O_10 
REMARK    5  A    between atoms: C_12  and  O_13 
REMARK    6  A    between atoms: O_13  and  C_14 
REMARK    7  A    between atoms: C_16  and  C_26 
REMARK    8  A    between atoms: C_17  and  O_18 
REMARK    9  A    between atoms: C_20  and  O_21 
REMARK   10  A    between atoms: C_23  and  O_24 
REMARK   11  A    between atoms: C_26  and  O_27 
ROOT
HETATM    1  C   UNK N   1      49.309  56.684  38.916  0.00  0.00     0.298 C 
HETATM    2  O   UNK N   1      48.547  57.738  39.491  0.00  0.00    -0.348 OA
HETATM    3  C   UNK N   1      47.530  58.167  38.590  0.00  0.00     0.179 C 
HETATM    4  C   UNK N   1      46.523  57.019  38.313  0.00  0.00     0.180 C 
HETATM    5  C   UNK N   1      47.278  55.808  37.744  0.00  0.00     0.183 C 
HETATM    6  C   UNK N   1      48.423  55.444  38.697  0.00  0.00     0.205 C 
ENDROOT
BRANCH   1   7
HETATM    7  O   UNK N   1      50.344  56.325  39.761  0.00  0.00    -0.315 OA
BRANCH   7   8
HETATM    8  C   UNK N   1      50.266  56.215  41.117  0.00  0.00     0.105 A 
HETATM    9  C   UNK N   1      50.298  54.930  41.698  0.00  0.00     0.099 A 
HETATM   10  C   UNK N   1      50.267  54.790  43.093  0.00  0.00     0.051 A 
HETATM   11  C   UNK N   1      50.245  55.919  43.918  0.00  0.00    -0.033 A 
HETATM   12  C   UNK N   1      50.179  57.197  43.335  0.00  0.00     0.014 A 
HETATM   13  C   UNK N   1      50.185  57.345  41.949  0.00  0.00     0.040 A 
BRANCH   9  14
HETATM   14  O   UNK N   1      50.384  53.822  40.933  0.00  0.00    -0.358 OA
HETATM   15  H   UNK N   1      50.727  53.843  40.028  0.00  0.00     0.218 HD
ENDBRANCH   9  14
BRANCH  11  16
HETATM   16  C   UNK N   1      50.253  55.756  45.394  0.00  0.00     0.017 C 
HETATM   17  C   UNK N   1      49.155  55.795  46.184  0.00  0.00     0.083 C 
BRANCH  17  18
HETATM   18  C   UNK N   1      47.794  56.200  45.740  0.00  0.00     0.282 C 
HETATM   19  O   UNK N   1      47.093  55.388  45.152  0.00  0.00    -0.260 OA
BRANCH  18  20
HETATM   20  O   UNK N   1      47.278  57.398  46.123  0.00  0.00    -0.323 OA
HETATM   21  C   UNK N   1      47.883  58.615  45.895  0.00  0.00     0.213 C 
ENDBRANCH  18  20
ENDBRANCH  17  18
ENDBRANCH  11  16
ENDBRANCH   7   8
ENDBRANCH   1   7
BRANCH   6  22
HETATM   22  O   UNK N   1      49.172  54.366  38.192  0.00  0.00    -0.388 OA
HETATM   23  H   UNK N   1      50.078  54.409  38.595  0.00  0.00     0.210 HD
ENDBRANCH   6  22
BRANCH   3  24
HETATM   24  C   UNK N   1      46.802  59.372  39.200  0.00  0.00     0.198 C 
BRANCH  24  25
HETATM   25  O   UNK N   1      45.798  58.929  40.070  0.00  0.00    -0.398 OA
HETATM   26  H   UNK N   1      45.032  58.669  39.496  0.00  0.00     0.209 HD
ENDBRANCH  24  25
ENDBRANCH   3  24
BRANCH   5  27
HETATM   27  O   UNK N   1      46.419  54.707  37.603  0.00  0.00    -0.390 OA
HETATM   28  H   UNK N   1      45.507  55.019  37.840  0.00  0.00     0.210 HD
ENDBRANCH   5  27
BRANCH   4  29
HETATM   29  O   UNK N   1      45.547  57.448  37.397  0.00  0.00    -0.390 OA
HETATM   30  H   UNK N   1      44.982  58.115  37.867  0.00  0.00     0.210 HD
ENDBRANCH   4  29
TORSDOF 11
ENDMDL
MODEL 8
REMARK VINA RESULT:      -5.8      2.264      3.736
REMARK  11 active torsions:
REMARK  status: ('A' for Active; 'I' for Inactive)
REMARK    1  A    between atoms: C_2  and  O_3 
REMARK    2  A    between atoms: C_2  and  C_5 
REMARK    3  A    between atoms: C_6  and  C_7 
REMARK    4  A    between atoms: C_9  and  O_10 
REMARK    5  A    between atoms: C_12  and  O_13 
REMARK    6  A    between atoms: O_13  and  C_14 
REMARK    7  A    between atoms: C_16  and  C_26 
REMARK    8  A    between atoms: C_17  and  O_18 
REMARK    9  A    between atoms: C_20  and  O_21 
REMARK   10  A    between atoms: C_23  and  O_24 
REMARK   11  A    between atoms: C_26  and  O_27 
ROOT
HETATM    1  C   UNK N   1      41.463  45.871  46.459  0.00  0.00     0.298 C 
HETATM    2  O   UNK N   1      42.278  46.981  46.811  0.00  0.00    -0.348 OA
HETATM    3  C   UNK N   1      42.253  47.965  45.781  0.00  0.00     0.179 C 
HETATM    4  C   UNK N   1      40.820  48.532  45.600  0.00  0.00     0.180 C 
HETATM    5  C   UNK N   1      39.856  47.381  45.276  0.00  0.00     0.183 C 
HETATM    6  C   UNK N   1      39.989  46.303  46.358  0.00  0.00     0.205 C 
ENDROOT
BRANCH   1   7
HETATM    7  O   UNK N   1      41.554  44.885  47.426  0.00  0.00    -0.315 OA
BRANCH   7   8
HETATM    8  C   UNK N   1      41.569  45.086  48.773  0.00  0.00     0.105 A 
HETATM    9  C   UNK N   1      40.508  44.575  49.550  0.00  0.00     0.099 A 
HETATM   10  C   UNK N   1      40.523  44.726  50.944  0.00  0.00     0.051 A 
HETATM   11  C   UNK N   1      41.604  45.349  51.577  0.00  0.00    -0.033 A 
HETATM   12  C   UNK N   1      42.642  45.888  50.798  0.00  0.00     0.014 A 
HETATM   13  C   UNK N   1      42.625  45.763  49.409  0.00  0.00     0.040 A 
BRANCH   9  14
HETATM   14  O   UNK N   1      39.482  43.912  48.977  0.00  0.00    -0.358 OA
HETATM   15  H   UNK N   1      39.121  44.164  48.115  0.00  0.00     0.218 HD
ENDBRANCH   9  14
BRANCH  11  16
HETATM   16  C   UNK N   1      41.624  45.467  53.058  0.00  0.00     0.017 C 
HETATM   17  C   UNK N   1      41.629  44.422  53.918  0.00  0.00     0.083 C 
BRANCH  17  18
HETATM   18  C   UNK N   1      41.416  42.999  53.538  0.00  0.00     0.282 C 
HETATM   19  O   UNK N   1      42.344  42.366  53.056  0.00  0.00    -0.260 OA
BRANCH  18  20
HETATM   20  O   UNK N   1      40.258  42.368  53.871  0.00  0.00    -0.323 OA
HETATM   21  C   UNK N   1      39.058  42.551  53.221  0.00  0.00     0.213 C 
ENDBRANCH  18  20
ENDBRANCH  17  18
ENDBRANCH  11  16
ENDBRANCH   7   8
ENDBRANCH   1   7
BRANCH   6  22
HETATM   22  O   UNK N   1      39.156  45.205  46.077  0.00  0.00    -0.388 OA
HETATM   23  H   UNK N   1      39.311  44.939  45.133  0.00  0.00     0.210 HD
ENDBRANCH   6  22
BRANCH   3  24
HETATM   24  C   UNK N   1      43.225  49.094  46.148  0.00  0.00     0.198 C 
BRANCH  24  25
HETATM   25  O   UNK N   1      44.177  48.623  47.060  0.00  0.00    -0.398 OA
HETATM   26  H   UNK N   1      44.410  49.397  47.637  0.00  0.00     0.209 HD
ENDBRANCH  24  25
ENDBRANCH   3  24
BRANCH   5  27
HETATM   27  O   UNK N   1      38.530  47.839  45.233  0.00  0.00    -0.390 OA
HETATM   28  H   UNK N   1      38.304  47.985  44.277  0.00  0.00     0.210 HD
ENDBRANCH   5  27
BRANCH   4  29
HETATM   29  O   UNK N   1      40.806  49.475  44.558  0.00  0.00    -0.390 OA
HETATM   30  H   UNK N   1      40.233  49.103  43.837  0.00  0.00     0.210 HD
ENDBRANCH   4  29
TORSDOF 11
ENDMDL
MODEL 9
REMARK VINA RESULT:      -5.7     14.787     17.515
REMARK  11 active torsions:
REMARK  status: ('A' for Active; 'I' for Inactive)
REMARK    1  A    between atoms: C_2  and  O_3 
REMARK    2  A    between atoms: C_2  and  C_5 
REMARK    3  A    between atoms: C_6  and  C_7 
REMARK    4  A    between atoms: C_9  and  O_10 
REMARK    5  A    between atoms: C_12  and  O_13 
REMARK    6  A    between atoms: O_13  and  C_14 
REMARK    7  A    between atoms: C_16  and  C_26 
REMARK    8  A    between atoms: C_17  and  O_18 
REMARK    9  A    between atoms: C_20  and  O_21 
REMARK   10  A    between atoms: C_23  and  O_24 
REMARK   11  A    between atoms: C_26  and  O_27 
ROOT
HETATM    1  C   UNK N   1      27.845  53.982  39.942  0.00  0.00     0.298 C 
HETATM    2  O   UNK N   1      29.014  54.791  39.936  0.00  0.00    -0.348 OA
HETATM    3  C   UNK N   1      28.702  56.121  40.342  0.00  0.00     0.179 C 
HETATM    4  C   UNK N   1      28.181  56.140  41.804  0.00  0.00     0.180 C 
HETATM    5  C   UNK N   1      26.945  55.234  41.914  0.00  0.00     0.183 C 
HETATM    6  C   UNK N   1      27.301  53.843  41.375  0.00  0.00     0.205 C 
ENDROOT
BRANCH   1   7
HETATM    7  O   UNK N   1      28.138  52.714  39.472  0.00  0.00    -0.315 OA
BRANCH   7   8
HETATM    8  C   UNK N   1      29.035  51.847  40.019  0.00  0.00     0.105 A 
HETATM    9  C   UNK N   1      28.582  50.583  40.453  0.00  0.00     0.099 A 
HETATM   10  C   UNK N   1      29.492  49.653  40.976  0.00  0.00     0.051 A 
HETATM   11  C   UNK N   1      30.857  49.954  41.036  0.00  0.00    -0.033 A 
HETATM   12  C   UNK N   1      31.300  51.227  40.635  0.00  0.00     0.014 A 
HETATM   13  C   UNK N   1      30.400  52.166  40.135  0.00  0.00     0.040 A 
BRANCH   9  14
HETATM   14  O   UNK N   1      27.282  50.236  40.350  0.00  0.00    -0.358 OA
HETATM   15  H   UNK N   1      26.748  49.996  41.121  0.00  0.00     0.218 HD
ENDBRANCH   9  14
BRANCH  11  16
HETATM   16  C   UNK N   1      31.814  48.945  41.556  0.00  0.00     0.017 C 
HETATM   17  C   UNK N   1      32.293  48.910  42.821  0.00  0.00     0.083 C 
BRANCH  17  18
HETATM   18  C   UNK N   1      32.101  49.978  43.839  0.00  0.00     0.282 C 
HETATM   19  O   UNK N   1      31.363  49.767  44.791  0.00  0.00    -0.260 OA
BRANCH  18  20
HETATM   20  O   UNK N   1      32.858  51.107  43.797  0.00  0.00    -0.323 OA
HETATM   21  C   UNK N   1      34.206  51.130  43.517  0.00  0.00     0.213 C 
ENDBRANCH  18  20
ENDBRANCH  17  18
ENDBRANCH  11  16
ENDBRANCH   7   8
ENDBRANCH   1   7
BRANCH   6  22
HETATM   22  O   UNK N   1      26.182  52.991  41.414  0.00  0.00    -0.388 OA
HETATM   23  H   UNK N   1      26.134  52.512  40.545  0.00  0.00     0.210 HD
ENDBRANCH   6  22
BRANCH   3  24
HETATM   24  C   UNK N   1      29.964  56.986  40.220  0.00  0.00     0.198 C 
BRANCH  24  25
HETATM   25  O   UNK N   1      29.605  58.311  39.943  0.00  0.00    -0.398 OA
HETATM   26  H   UNK N   1      29.724  58.810  40.792  0.00  0.00     0.209 HD
ENDBRANCH  24  25
ENDBRANCH   3  24
BRANCH   5  27
HETATM   27  O   UNK N   1      26.525  55.126  43.249  0.00  0.00    -0.390 OA
HETATM   28  H   UNK N   1      26.359  54.163  43.423  0.00  0.00     0.210 HD
ENDBRANCH   5  27
BRANCH   4  29
HETATM   29  O   UNK N   1      27.847  57.453  42.175  0.00  0.00    -0.390 OA
HETATM   30  H   UNK N   1      27.945  57.509  43.162  0.00  0.00     0.210 HD
ENDBRANCH   4  29
TORSDOF 11
ENDMDL
