MODEL 1
REMARK VINA RESULT:      -5.9      0.000      0.000
REMARK  5 active torsions:
REMARK  status: ('A' for Active; 'I' for Inactive)
REMARK    1  A    between atoms: C_3  and  C_24 
REMARK    2  A    between atoms: C_5  and  O_6 
REMARK    3  A    between atoms: C_11  and  C_12 
REMARK    4  A    between atoms: C_12  and  O_14 
REMARK    5  A    between atoms: C_24  and  O_25 
ROOT
HETATM    1  O   UNK N   1      31.794  52.074  43.408  0.00  0.00    -0.293 OA
HETATM    2  C   UNK N   1      31.462  53.001  42.684  0.00  0.00     0.158 C 
HETATM    3  C   UNK N   1      31.637  54.416  43.137  0.00  0.00     0.020 C 
HETATM    4  C   UNK N   1      31.071  55.412  42.397  0.00  0.00     0.025 C 
HETATM    5  C   UNK N   1      30.238  55.152  41.142  0.00  0.00     0.081 C 
HETATM    6  C   UNK N   1      29.656  53.691  41.153  0.00  0.00     0.039 C 
HETATM    7  C   UNK N   1      28.707  53.375  39.922  0.00  0.00    -0.032 C 
HETATM    8  C   UNK N   1      27.542  54.443  39.983  0.00  0.00     0.012 C 
HETATM    9  C   UNK N   1      26.299  54.196  39.042  0.00  0.00     0.049 C 
HETATM   10  C   UNK N   1      25.807  52.735  39.249  0.00  0.00     0.020 C 
HETATM   11  C   UNK N   1      26.921  51.691  39.100  0.00  0.00     0.002 C 
HETATM   12  C   UNK N   1      28.056  51.969  40.107  0.00  0.00     0.010 C 
HETATM   13  C   UNK N   1      26.569  54.471  37.535  0.00  0.00     0.026 C 
HETATM   14  C   UNK N   1      28.100  55.890  39.918  0.00  0.00     0.010 C 
HETATM   15  C   UNK N   1      29.051  56.147  41.098  0.00  0.00     0.043 C 
HETATM   16  C   UNK N   1      29.525  53.368  38.591  0.00  0.00     0.016 C 
HETATM   17  C   UNK N   1      30.814  52.702  41.363  0.00  0.00     0.092 C 
ENDROOT
BRANCH   3  18
HETATM   18  C   UNK N   1      32.425  54.693  44.436  0.00  0.00     0.081 C 
HETATM   19  C   UNK N   1      33.735  53.881  44.561  0.00  0.00     0.051 C 
HETATM   20  C   UNK N   1      31.533  54.361  45.654  0.00  0.00     0.051 C 
BRANCH  18  21
HETATM   21  O   UNK N   1      32.753  56.065  44.438  0.00  0.00    -0.386 OA
HETATM   22  H   UNK N   1      33.520  56.207  43.824  0.00  0.00     0.211 HD
ENDBRANCH  18  21
ENDBRANCH   3  18
BRANCH   5  23
HETATM   23  O   UNK N   1      31.072  55.345  40.026  0.00  0.00    -0.385 OA
HETATM   24  H   UNK N   1      31.844  54.723  40.099  0.00  0.00     0.211 HD
ENDBRANCH   5  23
BRANCH   9  25
HETATM   25  C   UNK N   1      25.163  55.113  39.510  0.00  0.00     0.267 C 
HETATM   26  O   UNK N   1      24.457  55.706  38.707  0.00  0.00    -0.264 OA
BRANCH  25  27
HETATM   27  O   UNK N   1      24.954  55.262  40.847  0.00  0.00    -0.326 OA
HETATM   28  C   UNK N   1      24.729  56.476  41.455  0.00  0.00     0.213 C 
ENDBRANCH  25  27
ENDBRANCH   9  25
TORSDOF 5
ENDMDL
MODEL 2
REMARK VINA RESULT:      -5.5     21.299     24.441
REMARK  5 active torsions:
REMARK  status: ('A' for Active; 'I' for Inactive)
REMARK    1  A    between atoms: C_3  and  C_24 
REMARK    2  A    between atoms: C_5  and  O_6 
REMARK    3  A    between atoms: C_11  and  C_12 
REMARK    4  A    between atoms: C_12  and  O_14 
REMARK    5  A    between atoms: C_24  and  O_25 
ROOT
HETATM    1  O   UNK N   1      33.950  42.539  59.450  0.00  0.00    -0.293 OA
HETATM    2  C   UNK N   1      33.695  43.051  60.530  0.00  0.00     0.158 C 
HETATM    3  C   UNK N   1      32.278  43.337  60.917  0.00  0.00     0.020 C 
HETATM    4  C   UNK N   1      32.045  44.091  62.029  0.00  0.00     0.025 C 
HETATM    5  C   UNK N   1      33.163  44.685  62.886  0.00  0.00     0.081 C 
HETATM    6  C   UNK N   1      34.490  44.819  62.054  0.00  0.00     0.039 C 
HETATM    7  C   UNK N   1      35.674  45.510  62.853  0.00  0.00    -0.032 C 
HETATM    8  C   UNK N   1      35.137  46.933  63.285  0.00  0.00     0.012 C 
HETATM    9  C   UNK N   1      36.200  47.953  63.853  0.00  0.00     0.049 C 
HETATM   10  C   UNK N   1      37.397  48.021  62.863  0.00  0.00     0.020 C 
HETATM   11  C   UNK N   1      37.977  46.644  62.514  0.00  0.00     0.002 C 
HETATM   12  C   UNK N   1      36.887  45.742  61.898  0.00  0.00     0.010 C 
HETATM   13  C   UNK N   1      36.698  47.626  65.290  0.00  0.00     0.026 C 
HETATM   14  C   UNK N   1      33.856  46.814  64.152  0.00  0.00     0.010 C 
HETATM   15  C   UNK N   1      32.746  46.098  63.366  0.00  0.00     0.043 C 
HETATM   16  C   UNK N   1      36.142  44.598  64.031  0.00  0.00     0.016 C 
HETATM   17  C   UNK N   1      34.823  43.451  61.435  0.00  0.00     0.092 C 
ENDROOT
BRANCH   3  18
HETATM   18  C   UNK N   1      31.136  42.795  60.029  0.00  0.00     0.081 C 
HETATM   19  C   UNK N   1      30.912  43.605  58.731  0.00  0.00     0.051 C 
HETATM   20  C   UNK N   1      29.817  42.800  60.835  0.00  0.00     0.051 C 
BRANCH  18  21
HETATM   21  O   UNK N   1      31.479  41.474  59.673  0.00  0.00    -0.386 OA
HETATM   22  H   UNK N   1      31.087  41.276  58.782  0.00  0.00     0.211 HD
ENDBRANCH  18  21
ENDBRANCH   3  18
BRANCH   5  23
HETATM   23  O   UNK N   1      33.353  43.836  63.991  0.00  0.00    -0.385 OA
HETATM   24  H   UNK N   1      32.688  44.076  64.690  0.00  0.00     0.211 HD
ENDBRANCH   5  23
BRANCH   9  25
HETATM   25  C   UNK N   1      35.559  49.346  63.864  0.00  0.00     0.267 C 
HETATM   26  O   UNK N   1      35.084  49.831  62.847  0.00  0.00    -0.264 OA
BRANCH  25  27
HETATM   27  O   UNK N   1      35.532  50.043  65.033  0.00  0.00    -0.326 OA
HETATM   28  C   UNK N   1      34.442  50.759  65.471  0.00  0.00     0.213 C 
ENDBRANCH  25  27
ENDBRANCH   9  25
TORSDOF 5
ENDMDL
MODEL 3
REMARK VINA RESULT:      -5.5     18.990     22.471
REMARK  5 active torsions:
REMARK  status: ('A' for Active; 'I' for Inactive)
REMARK    1  A    between atoms: C_3  and  C_24 
REMARK    2  A    between atoms: C_5  and  O_6 
REMARK    3  A    between atoms: C_11  and  C_12 
REMARK    4  A    between atoms: C_12  and  O_14 
REMARK    5  A    between atoms: C_24  and  O_25 
ROOT
HETATM    1  O   UNK N   1      33.030  47.287  63.650  0.00  0.00    -0.293 OA
HETATM    2  C   UNK N   1      32.973  46.136  63.245  0.00  0.00     0.158 C 
HETATM    3  C   UNK N   1      34.188  45.262  63.273  0.00  0.00     0.020 C 
HETATM    4  C   UNK N   1      34.143  44.062  62.627  0.00  0.00     0.025 C 
HETATM    5  C   UNK N   1      32.920  43.576  61.848  0.00  0.00     0.081 C 
HETATM    6  C   UNK N   1      32.021  44.790  61.411  0.00  0.00     0.039 C 
HETATM    7  C   UNK N   1      30.775  44.370  60.522  0.00  0.00    -0.032 C 
HETATM    8  C   UNK N   1      31.371  43.630  59.258  0.00  0.00     0.012 C 
HETATM    9  C   UNK N   1      30.378  43.348  58.064  0.00  0.00     0.049 C 
HETATM   10  C   UNK N   1      29.643  44.673  57.712  0.00  0.00     0.020 C 
HETATM   11  C   UNK N   1      28.987  45.346  58.924  0.00  0.00     0.002 C 
HETATM   12  C   UNK N   1      30.043  45.649  60.007  0.00  0.00     0.010 C 
HETATM   13  C   UNK N   1      29.352  42.211  58.336  0.00  0.00     0.026 C 
HETATM   14  C   UNK N   1      32.217  42.397  59.673  0.00  0.00     0.010 C 
HETATM   15  C   UNK N   1      33.386  42.832  60.572  0.00  0.00     0.043 C 
HETATM   16  C   UNK N   1      29.764  43.528  61.363  0.00  0.00     0.016 C 
HETATM   17  C   UNK N   1      31.689  45.630  62.655  0.00  0.00     0.092 C 
ENDROOT
BRANCH   3  18
HETATM   18  C   UNK N   1      35.452  45.763  64.004  0.00  0.00     0.081 C 
HETATM   19  C   UNK N   1      36.264  46.812  63.208  0.00  0.00     0.051 C 
HETATM   20  C   UNK N   1      36.379  44.562  64.301  0.00  0.00     0.051 C 
BRANCH  18  21
HETATM   21  O   UNK N   1      35.027  46.355  65.211  0.00  0.00    -0.386 OA
HETATM   22  H   UNK N   1      35.763  46.282  65.874  0.00  0.00     0.211 HD
ENDBRANCH  18  21
ENDBRANCH   3  18
BRANCH   5  23
HETATM   23  O   UNK N   1      32.201  42.701  62.682  0.00  0.00    -0.385 OA
HETATM   24  H   UNK N   1      31.251  42.698  62.390  0.00  0.00     0.211 HD
ENDBRANCH   5  23
BRANCH   9  25
HETATM   25  C   UNK N   1      31.213  42.969  56.835  0.00  0.00     0.267 C 
HETATM   26  O   UNK N   1      32.268  43.536  56.587  0.00  0.00    -0.264 OA
BRANCH  25  27
HETATM   27  O   UNK N   1      30.754  41.986  56.013  0.00  0.00    -0.326 OA
HETATM   28  C   UNK N   1      31.147  41.840  54.702  0.00  0.00     0.213 C 
ENDBRANCH  25  27
ENDBRANCH   9  25
TORSDOF 5
ENDMDL
MODEL 4
REMARK VINA RESULT:      -5.3     16.479     20.316
REMARK  5 active torsions:
REMARK  status: ('A' for Active; 'I' for Inactive)
REMARK    1  A    between atoms: C_3  and  C_24 
REMARK    2  A    between atoms: C_5  and  O_6 
REMARK    3  A    between atoms: C_11  and  C_12 
REMARK    4  A    between atoms: C_12  and  O_14 
REMARK    5  A    between atoms: C_24  and  O_25 
ROOT
HETATM    1  O   UNK N   1      31.210  45.361  63.435  0.00  0.00    -0.293 OA
HETATM    2  C   UNK N   1      30.772  45.269  62.298  0.00  0.00     0.158 C 
HETATM    3  C   UNK N   1      31.372  44.299  61.330  0.00  0.00     0.020 C 
HETATM    4  C   UNK N   1      30.998  44.369  60.021  0.00  0.00     0.025 C 
HETATM    5  C   UNK N   1      30.016  45.412  59.485  0.00  0.00     0.081 C 
HETATM    6  C   UNK N   1      29.965  46.665  60.432  0.00  0.00     0.039 C 
HETATM    7  C   UNK N   1      29.031  47.830  59.895  0.00  0.00    -0.032 C 
HETATM    8  C   UNK N   1      29.598  48.224  58.473  0.00  0.00     0.012 C 
HETATM    9  C   UNK N   1      29.035  49.548  57.824  0.00  0.00     0.049 C 
HETATM   10  C   UNK N   1      29.143  50.694  58.869  0.00  0.00     0.020 C 
HETATM   11  C   UNK N   1      28.511  50.345  60.223  0.00  0.00     0.002 C 
HETATM   12  C   UNK N   1      29.172  49.084  60.815  0.00  0.00     0.010 C 
HETATM   13  C   UNK N   1      27.579  49.432  57.289  0.00  0.00     0.026 C 
HETATM   14  C   UNK N   1      29.604  47.007  57.511  0.00  0.00     0.010 C 
HETATM   15  C   UNK N   1      30.479  45.880  58.083  0.00  0.00     0.043 C 
HETATM   16  C   UNK N   1      27.536  47.378  59.906  0.00  0.00     0.016 C 
HETATM   17  C   UNK N   1      29.668  46.189  61.864  0.00  0.00     0.092 C 
ENDROOT
BRANCH   3  18
HETATM   18  C   UNK N   1      32.411  43.278  61.843  0.00  0.00     0.081 C 
HETATM   19  C   UNK N   1      33.778  43.902  62.206  0.00  0.00     0.051 C 
HETATM   20  C   UNK N   1      32.645  42.201  60.758  0.00  0.00     0.051 C 
BRANCH  18  21
HETATM   21  O   UNK N   1      31.873  42.684  63.003  0.00  0.00    -0.386 OA
HETATM   22  H   UNK N   1      30.891  42.595  62.885  0.00  0.00     0.211 HD
ENDBRANCH  18  21
ENDBRANCH   3  18
BRANCH   5  23
HETATM   23  O   UNK N   1      28.751  44.804  59.398  0.00  0.00    -0.385 OA
HETATM   24  H   UNK N   1      28.816  44.030  58.777  0.00  0.00     0.211 HD
ENDBRANCH   5  23
BRANCH   9  25
HETATM   25  C   UNK N   1      29.954  49.930  56.657  0.00  0.00     0.267 C 
HETATM   26  O   UNK N   1      31.170  49.855  56.759  0.00  0.00    -0.264 OA
BRANCH  25  27
HETATM   27  O   UNK N   1      29.389  50.363  55.497  0.00  0.00    -0.326 OA
HETATM   28  C   UNK N   1      30.109  50.866  54.437  0.00  0.00     0.213 C 
ENDBRANCH  25  27
ENDBRANCH   9  25
TORSDOF 5
ENDMDL
MODEL 5
REMARK VINA RESULT:      -5.3     17.396     21.708
REMARK  5 active torsions:
REMARK  status: ('A' for Active; 'I' for Inactive)
REMARK    1  A    between atoms: C_3  and  C_24 
REMARK    2  A    between atoms: C_5  and  O_6 
REMARK    3  A    between atoms: C_11  and  C_12 
REMARK    4  A    between atoms: C_12  and  O_14 
REMARK    5  A    between atoms: C_24  and  O_25 
ROOT
HETATM    1  O   UNK N   1      30.711  48.170  56.600  0.00  0.00    -0.293 OA
HETATM    2  C   UNK N   1      30.170  47.593  57.531  0.00  0.00     0.158 C 
HETATM    3  C   UNK N   1      29.401  48.365  58.557  0.00  0.00     0.020 C 
HETATM    4  C   UNK N   1      28.990  47.719  59.685  0.00  0.00     0.025 C 
HETATM    5  C   UNK N   1      29.300  46.248  59.968  0.00  0.00     0.081 C 
HETATM    6  C   UNK N   1      30.562  45.780  59.157  0.00  0.00     0.039 C 
HETATM    7  C   UNK N   1      30.999  44.287  59.466  0.00  0.00    -0.032 C 
HETATM    8  C   UNK N   1      31.279  44.227  61.021  0.00  0.00     0.012 C 
HETATM    9  C   UNK N   1      31.999  42.932  61.566  0.00  0.00     0.049 C 
HETATM   10  C   UNK N   1      33.266  42.674  60.702  0.00  0.00     0.020 C 
HETATM   11  C   UNK N   1      32.980  42.642  59.196  0.00  0.00     0.002 C 
HETATM   12  C   UNK N   1      32.345  43.972  58.741  0.00  0.00     0.010 C 
HETATM   13  C   UNK N   1      31.099  41.665  61.606  0.00  0.00     0.026 C 
HETATM   14  C   UNK N   1      30.023  44.635  61.836  0.00  0.00     0.010 C 
HETATM   15  C   UNK N   1      29.599  46.069  61.478  0.00  0.00     0.043 C 
HETATM   16  C   UNK N   1      29.917  43.285  58.952  0.00  0.00     0.016 C 
HETATM   17  C   UNK N   1      30.342  46.108  57.671  0.00  0.00     0.092 C 
ENDROOT
BRANCH   3  18
HETATM   18  C   UNK N   1      29.130  49.866  58.315  0.00  0.00     0.081 C 
HETATM   19  C   UNK N   1      28.700  50.639  59.584  0.00  0.00     0.051 C 
HETATM   20  C   UNK N   1      28.014  50.018  57.256  0.00  0.00     0.051 C 
BRANCH  18  21
HETATM   21  O   UNK N   1      30.329  50.433  57.836  0.00  0.00    -0.386 OA
HETATM   22  H   UNK N   1      30.786  49.765  57.262  0.00  0.00     0.211 HD
ENDBRANCH  18  21
ENDBRANCH   3  18
BRANCH   5  23
HETATM   23  O   UNK N   1      28.170  45.494  59.606  0.00  0.00    -0.385 OA
HETATM   24  H   UNK N   1      28.199  44.629  60.095  0.00  0.00     0.211 HD
ENDBRANCH   5  23
BRANCH   9  25
HETATM   25  C   UNK N   1      32.490  43.228  62.988  0.00  0.00     0.267 C 
HETATM   26  O   UNK N   1      31.914  42.770  63.965  0.00  0.00    -0.264 OA
BRANCH  25  27
HETATM   27  O   UNK N   1      33.584  44.023  63.149  0.00  0.00    -0.326 OA
HETATM   28  C   UNK N   1      33.538  45.288  63.687  0.00  0.00     0.213 C 
ENDBRANCH  25  27
ENDBRANCH   9  25
TORSDOF 5
ENDMDL
MODEL 6
REMARK VINA RESULT:      -5.2     18.767     20.691
REMARK  5 active torsions:
REMARK  status: ('A' for Active; 'I' for Inactive)
REMARK    1  A    between atoms: C_3  and  C_24 
REMARK    2  A    between atoms: C_5  and  O_6 
REMARK    3  A    between atoms: C_11  and  C_12 
REMARK    4  A    between atoms: C_12  and  O_14 
REMARK    5  A    between atoms: C_24  and  O_25 
ROOT
HETATM    1  O   UNK N   1      32.585  42.789  55.973  0.00  0.00    -0.293 OA
HETATM    2  C   UNK N   1      31.364  42.745  55.990  0.00  0.00     0.158 C 
HETATM    3  C   UNK N   1      30.589  43.577  56.962  0.00  0.00     0.020 C 
HETATM    4  C   UNK N   1      29.251  43.350  57.093  0.00  0.00     0.025 C 
HETATM    5  C   UNK N   1      28.506  42.264  56.315  0.00  0.00     0.081 C 
HETATM    6  C   UNK N   1      29.498  41.140  55.842  0.00  0.00     0.039 C 
HETATM    7  C   UNK N   1      28.783  39.933  55.101  0.00  0.00    -0.032 C 
HETATM    8  C   UNK N   1      27.728  39.354  56.127  0.00  0.00     0.012 C 
HETATM    9  C   UNK N   1      27.065  37.969  55.762  0.00  0.00     0.049 C 
HETATM   10  C   UNK N   1      28.195  36.961  55.407  0.00  0.00     0.020 C 
HETATM   11  C   UNK N   1      29.168  37.487  54.344  0.00  0.00     0.002 C 
HETATM   12  C   UNK N   1      29.821  38.802  54.817  0.00  0.00     0.010 C 
HETATM   13  C   UNK N   1      26.017  38.041  54.614  0.00  0.00     0.026 C 
HETATM   14  C   UNK N   1      26.709  40.441  56.561  0.00  0.00     0.010 C 
HETATM   15  C   UNK N   1      27.439  41.617  57.232  0.00  0.00     0.043 C 
HETATM   16  C   UNK N   1      28.186  40.406  53.738  0.00  0.00     0.016 C 
HETATM   17  C   UNK N   1      30.654  41.796  55.069  0.00  0.00     0.092 C 
ENDROOT
BRANCH   3  18
HETATM   18  C   UNK N   1      31.336  44.638  57.800  0.00  0.00     0.081 C 
HETATM   19  C   UNK N   1      31.994  44.076  59.082  0.00  0.00     0.051 C 
HETATM   20  C   UNK N   1      30.346  45.750  58.215  0.00  0.00     0.051 C 
BRANCH  18  21
HETATM   21  O   UNK N   1      32.350  45.176  56.981  0.00  0.00    -0.386 OA
HETATM   22  H   UNK N   1      32.065  46.077  56.678  0.00  0.00     0.211 HD
ENDBRANCH  18  21
ENDBRANCH   3  18
BRANCH   5  23
HETATM   23  O   UNK N   1      27.887  42.877  55.211  0.00  0.00    -0.385 OA
HETATM   24  H   UNK N   1      27.588  42.166  54.583  0.00  0.00     0.211 HD
ENDBRANCH   5  23
BRANCH   9  25
HETATM   25  C   UNK N   1      26.375  37.430  57.020  0.00  0.00     0.267 C 
HETATM   26  O   UNK N   1      25.161  37.285  57.064  0.00  0.00    -0.264 OA
BRANCH  25  27
HETATM   27  O   UNK N   1      27.141  37.117  58.101  0.00  0.00    -0.326 OA
HETATM   28  C   UNK N   1      26.921  37.616  59.365  0.00  0.00     0.213 C 
ENDBRANCH  25  27
ENDBRANCH   9  25
TORSDOF 5
ENDMDL
MODEL 7
REMARK VINA RESULT:      -5.2     20.063     23.265
REMARK  5 active torsions:
REMARK  status: ('A' for Active; 'I' for Inactive)
REMARK    1  A    between atoms: C_3  and  C_24 
REMARK    2  A    between atoms: C_5  and  O_6 
REMARK    3  A    between atoms: C_11  and  C_12 
REMARK    4  A    between atoms: C_12  and  O_14 
REMARK    5  A    between atoms: C_24  and  O_25 
ROOT
HETATM    1  O   UNK N   1      35.009  48.264  63.458  0.00  0.00    -0.293 OA
HETATM    2  C   UNK N   1      34.772  47.070  63.350  0.00  0.00     0.158 C 
HETATM    3  C   UNK N   1      35.869  46.106  63.026  0.00  0.00     0.020 C 
HETATM    4  C   UNK N   1      35.536  44.822  62.711  0.00  0.00     0.025 C 
HETATM    5  C   UNK N   1      34.092  44.324  62.643  0.00  0.00     0.081 C 
HETATM    6  C   UNK N   1      33.102  45.521  62.404  0.00  0.00     0.039 C 
HETATM    7  C   UNK N   1      31.590  45.072  62.235  0.00  0.00    -0.032 C 
HETATM    8  C   UNK N   1      31.566  44.072  61.010  0.00  0.00     0.012 C 
HETATM    9  C   UNK N   1      30.148  43.681  60.437  0.00  0.00     0.049 C 
HETATM   10  C   UNK N   1      29.344  44.987  60.181  0.00  0.00     0.020 C 
HETATM   11  C   UNK N   1      29.290  45.918  61.400  0.00  0.00     0.002 C 
HETATM   12  C   UNK N   1      30.716  46.304  61.844  0.00  0.00     0.010 C 
HETATM   13  C   UNK N   1      29.337  42.708  61.339  0.00  0.00     0.026 C 
HETATM   14  C   UNK N   1      32.499  42.857  61.256  0.00  0.00     0.010 C 
HETATM   15  C   UNK N   1      33.947  43.331  61.463  0.00  0.00     0.043 C 
HETATM   16  C   UNK N   1      31.043  44.485  63.575  0.00  0.00     0.016 C 
HETATM   17  C   UNK N   1      33.355  46.591  63.479  0.00  0.00     0.092 C 
ENDROOT
BRANCH   3  18
HETATM   18  C   UNK N   1      37.330  46.607  63.031  0.00  0.00     0.081 C 
HETATM   19  C   UNK N   1      37.678  47.541  61.850  0.00  0.00     0.051 C 
HETATM   20  C   UNK N   1      38.285  45.392  62.983  0.00  0.00     0.051 C 
BRANCH  18  21
HETATM   21  O   UNK N   1      37.520  47.321  64.232  0.00  0.00    -0.386 OA
HETATM   22  H   UNK N   1      38.451  47.665  64.251  0.00  0.00     0.211 HD
ENDBRANCH  18  21
ENDBRANCH   3  18
BRANCH   5  23
HETATM   23  O   UNK N   1      33.804  43.676  63.858  0.00  0.00    -0.385 OA
HETATM   24  H   UNK N   1      32.817  43.606  63.951  0.00  0.00     0.211 HD
ENDBRANCH   5  23
BRANCH   9  25
HETATM   25  C   UNK N   1      30.358  43.020  59.070  0.00  0.00     0.267 C 
HETATM   26  O   UNK N   1      30.077  41.843  58.886  0.00  0.00    -0.264 OA
BRANCH  25  27
HETATM   27  O   UNK N   1      30.872  43.767  58.055  0.00  0.00    -0.326 OA
HETATM   28  C   UNK N   1      31.849  43.322  57.195  0.00  0.00     0.213 C 
ENDBRANCH  25  27
ENDBRANCH   9  25
TORSDOF 5
ENDMDL
MODEL 8
REMARK VINA RESULT:      -5.1     15.764     19.201
REMARK  5 active torsions:
REMARK  status: ('A' for Active; 'I' for Inactive)
REMARK    1  A    between atoms: C_3  and  C_24 
REMARK    2  A    between atoms: C_5  and  O_6 
REMARK    3  A    between atoms: C_11  and  C_12 
REMARK    4  A    between atoms: C_12  and  O_14 
REMARK    5  A    between atoms: C_24  and  O_25 
ROOT
HETATM    1  O   UNK N   1      29.012  41.836  51.095  0.00  0.00    -0.293 OA
HETATM    2  C   UNK N   1      28.444  41.803  52.177  0.00  0.00     0.158 C 
HETATM    3  C   UNK N   1      27.006  42.200  52.291  0.00  0.00     0.020 C 
HETATM    4  C   UNK N   1      26.467  42.348  53.535  0.00  0.00     0.025 C 
HETATM    5  C   UNK N   1      27.269  42.157  54.822  0.00  0.00     0.081 C 
HETATM    6  C   UNK N   1      28.806  42.350  54.554  0.00  0.00     0.039 C 
HETATM    7  C   UNK N   1      29.697  42.253  55.863  0.00  0.00    -0.032 C 
HETATM    8  C   UNK N   1      29.155  43.368  56.844  0.00  0.00     0.012 C 
HETATM    9  C   UNK N   1      30.035  43.688  58.115  0.00  0.00     0.049 C 
HETATM   10  C   UNK N   1      31.499  43.935  57.651  0.00  0.00     0.020 C 
HETATM   11  C   UNK N   1      32.057  42.808  56.772  0.00  0.00     0.002 C 
HETATM   12  C   UNK N   1      31.176  42.617  55.520  0.00  0.00     0.010 C 
HETATM   13  C   UNK N   1      29.990  42.593  59.219  0.00  0.00     0.026 C 
HETATM   14  C   UNK N   1      27.650  43.157  57.160  0.00  0.00     0.010 C 
HETATM   15  C   UNK N   1      26.822  43.210  55.867  0.00  0.00     0.043 C 
HETATM   16  C   UNK N   1      29.668  40.800  56.436  0.00  0.00     0.016 C 
HETATM   17  C   UNK N   1      29.225  41.423  53.401  0.00  0.00     0.092 C 
ENDROOT
BRANCH   3  18
HETATM   18  C   UNK N   1      26.196  42.455  51.001  0.00  0.00     0.081 C 
HETATM   19  C   UNK N   1      24.848  43.175  51.237  0.00  0.00     0.051 C 
HETATM   20  C   UNK N   1      25.906  41.105  50.305  0.00  0.00     0.051 C 
BRANCH  18  21
HETATM   21  O   UNK N   1      26.991  43.266  50.165  0.00  0.00    -0.386 OA
HETATM   22  H   UNK N   1      27.935  42.969  50.242  0.00  0.00     0.211 HD
ENDBRANCH  18  21
ENDBRANCH   3  18
BRANCH   5  23
HETATM   23  O   UNK N   1      27.008  40.860  55.302  0.00  0.00    -0.385 OA
HETATM   24  H   UNK N   1      27.442  40.760  56.190  0.00  0.00     0.211 HD
ENDBRANCH   5  23
BRANCH   9  25
HETATM   25  C   UNK N   1      29.536  45.007  58.715  0.00  0.00     0.267 C 
HETATM   26  O   UNK N   1      29.303  45.111  59.911  0.00  0.00    -0.264 OA
BRANCH  25  27
HETATM   27  O   UNK N   1      29.347  46.071  57.886  0.00  0.00    -0.326 OA
HETATM   28  C   UNK N   1      30.091  47.227  57.943  0.00  0.00     0.213 C 
ENDBRANCH  25  27
ENDBRANCH   9  25
TORSDOF 5
ENDMDL
MODEL 9
REMARK VINA RESULT:      -5.1     15.076     17.995
REMARK  5 active torsions:
REMARK  status: ('A' for Active; 'I' for Inactive)
REMARK    1  A    between atoms: C_3  and  C_24 
REMARK    2  A    between atoms: C_5  and  O_6 
REMARK    3  A    between atoms: C_11  and  C_12 
REMARK    4  A    between atoms: C_12  and  O_14 
REMARK    5  A    between atoms: C_24  and  O_25 
ROOT
HETATM    1  O   UNK N   1      42.700  45.659  53.005  0.00  0.00    -0.293 OA
HETATM    2  C   UNK N   1      41.869  45.390  52.150  0.00  0.00     0.158 C 
HETATM    3  C   UNK N   1      41.141  44.083  52.185  0.00  0.00     0.020 C 
HETATM    4  C   UNK N   1      40.380  43.732  51.110  0.00  0.00     0.025 C 
HETATM    5  C   UNK N   1      40.257  44.595  49.854  0.00  0.00     0.081 C 
HETATM    6  C   UNK N   1      41.491  45.559  49.719  0.00  0.00     0.039 C 
HETATM    7  C   UNK N   1      41.477  46.427  48.391  0.00  0.00    -0.032 C 
HETATM    8  C   UNK N   1      41.440  45.393  47.194  0.00  0.00     0.012 C 
HETATM    9  C   UNK N   1      41.702  45.968  45.748  0.00  0.00     0.049 C 
HETATM   10  C   UNK N   1      43.002  46.821  45.785  0.00  0.00     0.020 C 
HETATM   11  C   UNK N   1      43.001  47.886  46.890  0.00  0.00     0.002 C 
HETATM   12  C   UNK N   1      42.813  47.226  48.271  0.00  0.00     0.010 C 
HETATM   13  C   UNK N   1      40.523  46.797  45.163  0.00  0.00     0.026 C 
HETATM   14  C   UNK N   1      40.197  44.469  47.286  0.00  0.00     0.010 C 
HETATM   15  C   UNK N   1      40.217  43.679  48.605  0.00  0.00     0.043 C 
HETATM   16  C   UNK N   1      40.294  47.446  48.417  0.00  0.00     0.016 C 
HETATM   17  C   UNK N   1      41.638  46.357  51.026  0.00  0.00     0.092 C 
ENDROOT
BRANCH   3  18
HETATM   18  C   UNK N   1      41.302  43.171  53.422  0.00  0.00     0.081 C 
HETATM   19  C   UNK N   1      42.363  42.060  53.248  0.00  0.00     0.051 C 
HETATM   20  C   UNK N   1      39.946  42.499  53.738  0.00  0.00     0.051 C 
BRANCH  18  21
HETATM   21  O   UNK N   1      41.694  43.995  54.497  0.00  0.00    -0.386 OA
HETATM   22  H   UNK N   1      42.671  43.887  54.636  0.00  0.00     0.211 HD
ENDBRANCH  18  21
ENDBRANCH   3  18
BRANCH   5  23
HETATM   23  O   UNK N   1      39.061  45.328  49.953  0.00  0.00    -0.385 OA
HETATM   24  H   UNK N   1      38.452  44.853  50.578  0.00  0.00     0.211 HD
ENDBRANCH   5  23
BRANCH   9  25
HETATM   25  C   UNK N   1      41.980  44.786  44.813  0.00  0.00     0.267 C 
HETATM   26  O   UNK N   1      41.730  44.852  43.617  0.00  0.00    -0.264 OA
BRANCH  25  27
HETATM   27  O   UNK N   1      42.507  43.647  45.340  0.00  0.00    -0.326 OA
HETATM   28  C   UNK N   1      43.386  42.828  44.669  0.00  0.00     0.213 C 
ENDBRANCH  25  27
ENDBRANCH   9  25
TORSDOF 5
ENDMDL
