MODEL 1
REMARK VINA RESULT:      -5.8      0.000      0.000
REMARK  10 active torsions:
REMARK  status: ('A' for Active; 'I' for Inactive)
REMARK    1  A    between atoms: C_2  and  O_3 
REMARK    2  A    between atoms: C_2  and  C_5 
REMARK    3  A    between atoms: C_8  and  O_9 
REMARK    4  A    between atoms: O_9  and  C_10 
REMARK    5  A    between atoms: C_12  and  C_22 
REMARK    6  A    between atoms: C_13  and  O_14 
REMARK    7  A    between atoms: C_16  and  O_17 
REMARK    8  A    between atoms: C_19  and  O_20 
REMARK    9  A    between atoms: C_22  and  O_23 
REMARK   10  A    between atoms: C_26  and  O_27 
ROOT
HETATM    1  C   UNK N   1      48.000  56.578  39.905  0.00  0.00     0.042 C 
HETATM    2  C   UNK N   1      48.455  57.578  40.699  0.00  0.00     0.152 C 
HETATM    3  O   UNK N   1      49.673  57.499  41.303  0.00  0.00    -0.331 OA
HETATM    4  C   UNK N   1      50.288  56.284  41.561  0.00  0.00     0.276 C 
HETATM    5  C   UNK N   1      50.288  55.439  40.276  0.00  0.00     0.084 C 
HETATM    6  C   UNK N   1      51.263  55.821  39.134  0.00  0.00     0.063 C 
HETATM    7  C   UNK N   1      50.668  54.966  38.004  0.00  0.00     0.039 C 
HETATM    8  C   UNK N   1      49.172  55.239  38.104  0.00  0.00     0.013 C 
HETATM    9  C   UNK N   1      48.882  55.361  39.623  0.00  0.00     0.039 C 
HETATM   10  C   UNK N   1      51.298  57.324  38.778  0.00  0.00     0.046 C 
ENDROOT
BRANCH   4  11
HETATM   11  O   UNK N   1      49.568  55.569  42.553  0.00  0.00    -0.328 OA
BRANCH  11  12
HETATM   12  C   UNK N   1      49.840  56.038  43.866  0.00  0.00     0.294 C 
HETATM   13  O   UNK N   1      51.002  56.859  43.876  0.00  0.00    -0.348 OA
HETATM   14  C   UNK N   1      51.234  57.382  45.177  0.00  0.00     0.179 C 
HETATM   15  C   UNK N   1      51.613  56.236  46.145  0.00  0.00     0.180 C 
HETATM   16  C   UNK N   1      50.463  55.211  46.182  0.00  0.00     0.183 C 
HETATM   17  C   UNK N   1      50.094  54.797  44.748  0.00  0.00     0.204 C 
BRANCH  14  18
HETATM   18  C   UNK N   1      52.363  58.419  45.090  0.00  0.00     0.198 C 
BRANCH  18  19
HETATM   19  O   UNK N   1      53.598  57.784  45.272  0.00  0.00    -0.398 OA
HETATM   20  H   UNK N   1      53.514  56.891  44.848  0.00  0.00     0.209 HD
ENDBRANCH  18  19
ENDBRANCH  14  18
BRANCH  15  21
HETATM   21  O   UNK N   1      51.834  56.759  47.431  0.00  0.00    -0.390 OA
HETATM   22  H   UNK N   1      52.816  56.844  47.549  0.00  0.00     0.210 HD
ENDBRANCH  15  21
BRANCH  16  23
HETATM   23  O   UNK N   1      50.840  54.066  46.903  0.00  0.00    -0.390 OA
HETATM   24  H   UNK N   1      51.176  53.400  46.250  0.00  0.00     0.210 HD
ENDBRANCH  16  23
BRANCH  17  25
HETATM   25  O   UNK N   1      48.982  53.937  44.747  0.00  0.00    -0.388 OA
HETATM   26  H   UNK N   1      48.696  53.818  43.802  0.00  0.00     0.210 HD
ENDBRANCH  17  25
ENDBRANCH  11  12
ENDBRANCH   4  11
BRANCH   6  27
HETATM   27  O   UNK N   1      52.576  55.388  39.398  0.00  0.00    -0.390 OA
HETATM   28  H   UNK N   1      53.008  56.062  39.983  0.00  0.00     0.210 HD
ENDBRANCH   6  27
BRANCH   1  29
HETATM   29  C   UNK N   1      46.644  56.663  39.290  0.00  0.00     0.174 C 
HETATM   30  O   UNK N   1      46.346  57.607  38.573  0.00  0.00    -0.646 OA
BRANCH  29  31
HETATM   31  O   UNK N   1      45.734  55.696  39.535  0.00  0.00    -0.773 OA
HETATM   32  H   UNK N   1      45.095  55.426  38.858  0.00  0.00     0.167 HD
ENDBRANCH  29  31
ENDBRANCH   1  29
TORSDOF 10
ENDMDL
MODEL 2
REMARK VINA RESULT:      -5.5     12.386     14.761
REMARK  10 active torsions:
REMARK  status: ('A' for Active; 'I' for Inactive)
REMARK    1  A    between atoms: C_2  and  O_3 
REMARK    2  A    between atoms: C_2  and  C_5 
REMARK    3  A    between atoms: C_8  and  O_9 
REMARK    4  A    between atoms: O_9  and  C_10 
REMARK    5  A    between atoms: C_12  and  C_22 
REMARK    6  A    between atoms: C_13  and  O_14 
REMARK    7  A    between atoms: C_16  and  O_17 
REMARK    8  A    between atoms: C_19  and  O_20 
REMARK    9  A    between atoms: C_22  and  O_23 
REMARK   10  A    between atoms: C_26  and  O_27 
ROOT
HETATM    1  C   UNK N   1      40.261  48.636  45.358  0.00  0.00     0.042 C 
HETATM    2  C   UNK N   1      39.234  48.256  46.156  0.00  0.00     0.152 C 
HETATM    3  O   UNK N   1      39.384  47.261  47.074  0.00  0.00    -0.331 OA
HETATM    4  C   UNK N   1      40.354  46.280  46.941  0.00  0.00     0.276 C 
HETATM    5  C   UNK N   1      41.712  46.949  46.671  0.00  0.00     0.084 C 
HETATM    6  C   UNK N   1      42.434  47.666  47.840  0.00  0.00     0.063 C 
HETATM    7  C   UNK N   1      43.496  48.436  47.040  0.00  0.00     0.039 C 
HETATM    8  C   UNK N   1      42.700  49.053  45.896  0.00  0.00     0.013 C 
HETATM    9  C   UNK N   1      41.637  47.988  45.519  0.00  0.00     0.039 C 
HETATM   10  C   UNK N   1      41.541  48.603  48.685  0.00  0.00     0.046 C 
ENDROOT
BRANCH   4  11
HETATM   11  O   UNK N   1      40.055  45.439  45.838  0.00  0.00    -0.328 OA
BRANCH  11  12
HETATM   12  C   UNK N   1      40.548  44.119  46.010  0.00  0.00     0.294 C 
HETATM   13  O   UNK N   1      41.113  43.958  47.307  0.00  0.00    -0.348 OA
HETATM   14  C   UNK N   1      41.545  42.619  47.502  0.00  0.00     0.179 C 
HETATM   15  C   UNK N   1      42.737  42.308  46.566  0.00  0.00     0.180 C 
HETATM   16  C   UNK N   1      42.294  42.515  45.105  0.00  0.00     0.183 C 
HETATM   17  C   UNK N   1      41.652  43.904  44.952  0.00  0.00     0.204 C 
BRANCH  14  18
HETATM   18  C   UNK N   1      41.947  42.447  48.973  0.00  0.00     0.198 C 
BRANCH  18  19
HETATM   19  O   UNK N   1      42.326  43.687  49.504  0.00  0.00    -0.398 OA
HETATM   20  H   UNK N   1      43.229  43.554  49.894  0.00  0.00     0.209 HD
ENDBRANCH  18  19
ENDBRANCH  14  18
BRANCH  15  21
HETATM   21  O   UNK N   1      43.156  40.980  46.759  0.00  0.00    -0.390 OA
HETATM   22  H   UNK N   1      43.261  40.844  47.736  0.00  0.00     0.210 HD
ENDBRANCH  15  21
BRANCH  16  23
HETATM   23  O   UNK N   1      43.392  42.425  44.233  0.00  0.00    -0.390 OA
HETATM   24  H   UNK N   1      44.088  41.884  44.687  0.00  0.00     0.210 HD
ENDBRANCH  16  23
BRANCH  17  25
HETATM   25  O   UNK N   1      41.149  44.082  43.651  0.00  0.00    -0.388 OA
HETATM   26  H   UNK N   1      41.537  44.923  43.292  0.00  0.00     0.210 HD
ENDBRANCH  17  25
ENDBRANCH  11  12
ENDBRANCH   4  11
BRANCH   6  27
HETATM   27  O   UNK N   1      43.074  46.754  48.699  0.00  0.00    -0.390 OA
HETATM   28  H   UNK N   1      43.007  45.853  48.292  0.00  0.00     0.210 HD
ENDBRANCH   6  27
BRANCH   1  29
HETATM   29  C   UNK N   1      40.063  49.695  44.328  0.00  0.00     0.174 C 
HETATM   30  O   UNK N   1      40.266  50.870  44.598  0.00  0.00    -0.646 OA
BRANCH  29  31
HETATM   31  O   UNK N   1      39.644  49.357  43.089  0.00  0.00    -0.773 OA
HETATM   32  H   UNK N   1      38.816  48.873  42.955  0.00  0.00     0.167 HD
ENDBRANCH  29  31
ENDBRANCH   1  29
TORSDOF 10
ENDMDL
MODEL 3
REMARK VINA RESULT:      -5.4     17.084     19.987
REMARK  10 active torsions:
REMARK  status: ('A' for Active; 'I' for Inactive)
REMARK    1  A    between atoms: C_2  and  O_3 
REMARK    2  A    between atoms: C_2  and  C_5 
REMARK    3  A    between atoms: C_8  and  O_9 
REMARK    4  A    between atoms: O_9  and  C_10 
REMARK    5  A    between atoms: C_12  and  C_22 
REMARK    6  A    between atoms: C_13  and  O_14 
REMARK    7  A    between atoms: C_16  and  O_17 
REMARK    8  A    between atoms: C_19  and  O_20 
REMARK    9  A    between atoms: C_22  and  O_23 
REMARK   10  A    between atoms: C_26  and  O_27 
ROOT
HETATM    1  C   UNK N   1      27.621  54.523  41.038  0.00  0.00     0.042 C 
HETATM    2  C   UNK N   1      28.014  55.750  41.463  0.00  0.00     0.152 C 
HETATM    3  O   UNK N   1      29.324  56.120  41.432  0.00  0.00    -0.331 OA
HETATM    4  C   UNK N   1      30.351  55.189  41.451  0.00  0.00     0.276 C 
HETATM    5  C   UNK N   1      30.085  54.127  40.372  0.00  0.00     0.084 C 
HETATM    6  C   UNK N   1      30.300  54.505  38.885  0.00  0.00     0.063 C 
HETATM    7  C   UNK N   1      29.600  53.310  38.220  0.00  0.00     0.039 C 
HETATM    8  C   UNK N   1      28.289  53.196  38.989  0.00  0.00     0.013 C 
HETATM    9  C   UNK N   1      28.646  53.549  40.457  0.00  0.00     0.039 C 
HETATM   10  C   UNK N   1      29.687  55.858  38.458  0.00  0.00     0.046 C 
ENDROOT
BRANCH   4  11
HETATM   11  O   UNK N   1      30.396  54.533  42.708  0.00  0.00    -0.328 OA
BRANCH  11  12
HETATM   12  C   UNK N   1      31.599  53.802  42.897  0.00  0.00     0.294 C 
HETATM   13  O   UNK N   1      31.324  52.416  43.072  0.00  0.00    -0.348 OA
HETATM   14  C   UNK N   1      32.531  51.677  43.194  0.00  0.00     0.179 C 
HETATM   15  C   UNK N   1      33.248  52.055  44.511  0.00  0.00     0.180 C 
HETATM   16  C   UNK N   1      33.550  53.567  44.503  0.00  0.00     0.183 C 
HETATM   17  C   UNK N   1      32.265  54.347  44.180  0.00  0.00     0.204 C 
BRANCH  14  18
HETATM   18  C   UNK N   1      32.190  50.181  43.167  0.00  0.00     0.198 C 
BRANCH  18  19
HETATM   19  O   UNK N   1      31.979  49.724  44.475  0.00  0.00    -0.398 OA
HETATM   20  H   UNK N   1      32.228  50.477  45.072  0.00  0.00     0.209 HD
ENDBRANCH  18  19
ENDBRANCH  14  18
BRANCH  15  21
HETATM   21  O   UNK N   1      34.446  51.326  44.624  0.00  0.00    -0.390 OA
HETATM   22  H   UNK N   1      34.893  51.623  45.458  0.00  0.00     0.210 HD
ENDBRANCH  15  21
BRANCH  16  23
HETATM   23  O   UNK N   1      34.033  53.985  45.754  0.00  0.00    -0.390 OA
HETATM   24  H   UNK N   1      34.972  54.276  45.629  0.00  0.00     0.210 HD
ENDBRANCH  16  23
BRANCH  17  25
HETATM   25  O   UNK N   1      32.531  55.722  44.067  0.00  0.00    -0.388 OA
HETATM   26  H   UNK N   1      31.926  56.197  44.697  0.00  0.00     0.210 HD
ENDBRANCH  17  25
ENDBRANCH  11  12
ENDBRANCH   4  11
BRANCH   6  27
HETATM   27  O   UNK N   1      31.663  54.496  38.533  0.00  0.00    -0.390 OA
HETATM   28  H   UNK N   1      31.914  53.562  38.311  0.00  0.00     0.210 HD
ENDBRANCH   6  27
BRANCH   1  29
HETATM   29  C   UNK N   1      26.188  54.121  41.122  0.00  0.00     0.174 C 
HETATM   30  O   UNK N   1      25.301  54.944  40.951  0.00  0.00    -0.646 OA
BRANCH  29  31
HETATM   31  O   UNK N   1      25.866  52.840  41.401  0.00  0.00    -0.773 OA
HETATM   32  H   UNK N   1      25.120  52.404  40.963  0.00  0.00     0.167 HD
ENDBRANCH  29  31
ENDBRANCH   1  29
TORSDOF 10
ENDMDL
MODEL 4
REMARK VINA RESULT:      -5.2     17.286     20.224
REMARK  10 active torsions:
REMARK  status: ('A' for Active; 'I' for Inactive)
REMARK    1  A    between atoms: C_2  and  O_3 
REMARK    2  A    between atoms: C_2  and  C_5 
REMARK    3  A    between atoms: C_8  and  O_9 
REMARK    4  A    between atoms: O_9  and  C_10 
REMARK    5  A    between atoms: C_12  and  C_22 
REMARK    6  A    between atoms: C_13  and  O_14 
REMARK    7  A    between atoms: C_16  and  O_17 
REMARK    8  A    between atoms: C_19  and  O_20 
REMARK    9  A    between atoms: C_22  and  O_23 
REMARK   10  A    between atoms: C_26  and  O_27 
ROOT
HETATM    1  C   UNK N   1      27.549  52.277  39.742  0.00  0.00     0.042 C 
HETATM    2  C   UNK N   1      27.699  52.994  40.883  0.00  0.00     0.152 C 
HETATM    3  O   UNK N   1      28.839  53.697  41.129  0.00  0.00    -0.331 OA
HETATM    4  C   UNK N   1      30.048  53.367  40.538  0.00  0.00     0.276 C 
HETATM    5  C   UNK N   1      29.842  53.223  39.021  0.00  0.00     0.084 C 
HETATM    6  C   UNK N   1      29.645  54.504  38.172  0.00  0.00     0.063 C 
HETATM    7  C   UNK N   1      29.147  53.862  36.867  0.00  0.00     0.039 C 
HETATM    8  C   UNK N   1      28.094  52.868  37.341  0.00  0.00     0.013 C 
HETATM    9  C   UNK N   1      28.644  52.298  38.675  0.00  0.00     0.039 C 
HETATM   10  C   UNK N   1      28.637  55.523  38.748  0.00  0.00     0.046 C 
ENDROOT
BRANCH   4  11
HETATM   11  O   UNK N   1      30.515  52.123  41.035  0.00  0.00    -0.328 OA
BRANCH  11  12
HETATM   12  C   UNK N   1      31.047  52.226  42.348  0.00  0.00     0.294 C 
HETATM   13  O   UNK N   1      31.595  53.521  42.568  0.00  0.00    -0.348 OA
HETATM   14  C   UNK N   1      32.066  53.645  43.902  0.00  0.00     0.179 C 
HETATM   15  C   UNK N   1      33.282  52.714  44.120  0.00  0.00     0.180 C 
HETATM   16  C   UNK N   1      32.856  51.259  43.841  0.00  0.00     0.183 C 
HETATM   17  C   UNK N   1      32.174  51.177  42.465  0.00  0.00     0.204 C 
BRANCH  14  18
HETATM   18  C   UNK N   1      32.450  55.111  44.148  0.00  0.00     0.198 C 
BRANCH  18  19
HETATM   19  O   UNK N   1      33.835  55.263  44.008  0.00  0.00    -0.398 OA
HETATM   20  H   UNK N   1      34.180  55.480  44.913  0.00  0.00     0.209 HD
ENDBRANCH  18  19
ENDBRANCH  14  18
BRANCH  15  21
HETATM   21  O   UNK N   1      33.740  52.836  45.444  0.00  0.00    -0.390 OA
HETATM   22  H   UNK N   1      33.970  53.790  45.589  0.00  0.00     0.210 HD
ENDBRANCH  15  21
BRANCH  16  23
HETATM   23  O   UNK N   1      33.971  50.404  43.846  0.00  0.00    -0.390 OA
HETATM   24  H   UNK N   1      34.028  49.984  42.950  0.00  0.00     0.210 HD
ENDBRANCH  16  23
BRANCH  17  25
HETATM   25  O   UNK N   1      31.686  49.880  42.227  0.00  0.00    -0.388 OA
HETATM   26  H   UNK N   1      31.467  49.475  43.108  0.00  0.00     0.210 HD
ENDBRANCH  17  25
ENDBRANCH  11  12
ENDBRANCH   4  11
BRANCH   6  27
HETATM   27  O   UNK N   1      30.864  55.163  37.926  0.00  0.00    -0.390 OA
HETATM   28  H   UNK N   1      30.658  56.041  37.513  0.00  0.00     0.210 HD
ENDBRANCH   6  27
BRANCH   1  29
HETATM   29  C   UNK N   1      26.312  51.477  39.512  0.00  0.00     0.174 C 
HETATM   30  O   UNK N   1      26.383  50.327  39.106  0.00  0.00    -0.646 OA
BRANCH  29  31
HETATM   31  O   UNK N   1      25.102  52.030  39.745  0.00  0.00    -0.773 OA
HETATM   32  H   UNK N   1      24.549  51.733  40.482  0.00  0.00     0.167 HD
ENDBRANCH  29  31
ENDBRANCH   1  29
TORSDOF 10
ENDMDL
MODEL 5
REMARK VINA RESULT:      -5.1     26.437     28.919
REMARK  10 active torsions:
REMARK  status: ('A' for Active; 'I' for Inactive)
REMARK    1  A    between atoms: C_2  and  O_3 
REMARK    2  A    between atoms: C_2  and  C_5 
REMARK    3  A    between atoms: C_8  and  O_9 
REMARK    4  A    between atoms: O_9  and  C_10 
REMARK    5  A    between atoms: C_12  and  C_22 
REMARK    6  A    between atoms: C_13  and  O_14 
REMARK    7  A    between atoms: C_16  and  O_17 
REMARK    8  A    between atoms: C_19  and  O_20 
REMARK    9  A    between atoms: C_22  and  O_23 
REMARK   10  A    between atoms: C_26  and  O_27 
ROOT
HETATM    1  C   UNK N   1      32.449  42.953  58.510  0.00  0.00     0.042 C 
HETATM    2  C   UNK N   1      32.567  43.010  57.161  0.00  0.00     0.152 C 
HETATM    3  O   UNK N   1      31.498  43.306  56.372  0.00  0.00    -0.331 OA
HETATM    4  C   UNK N   1      30.194  43.088  56.789  0.00  0.00     0.276 C 
HETATM    5  C   UNK N   1      30.002  43.712  58.181  0.00  0.00     0.084 C 
HETATM    6  C   UNK N   1      29.904  45.253  58.299  0.00  0.00     0.063 C 
HETATM    7  C   UNK N   1      30.074  45.398  59.819  0.00  0.00     0.039 C 
HETATM    8  C   UNK N   1      31.264  44.497  60.129  0.00  0.00     0.013 C 
HETATM    9  C   UNK N   1      31.113  43.282  59.177  0.00  0.00     0.039 C 
HETATM   10  C   UNK N   1      30.974  46.040  57.510  0.00  0.00     0.046 C 
ENDROOT
BRANCH   4  11
HETATM   11  O   UNK N   1      29.939  41.696  56.896  0.00  0.00    -0.328 OA
BRANCH  11  12
HETATM   12  C   UNK N   1      29.670  41.094  55.638  0.00  0.00     0.294 C 
HETATM   13  O   UNK N   1      29.315  42.079  54.675  0.00  0.00    -0.348 OA
HETATM   14  C   UNK N   1      29.112  41.484  53.401  0.00  0.00     0.179 C 
HETATM   15  C   UNK N   1      27.863  40.573  53.438  0.00  0.00     0.180 C 
HETATM   16  C   UNK N   1      28.070  39.482  54.507  0.00  0.00     0.183 C 
HETATM   17  C   UNK N   1      28.477  40.135  55.839  0.00  0.00     0.204 C 
BRANCH  14  18
HETATM   18  C   UNK N   1      28.941  42.602  52.363  0.00  0.00     0.198 C 
BRANCH  18  19
HETATM   19  O   UNK N   1      29.597  42.246  51.177  0.00  0.00    -0.398 OA
HETATM   20  H   UNK N   1      28.922  42.331  50.455  0.00  0.00     0.209 HD
ENDBRANCH  18  19
ENDBRANCH  14  18
BRANCH  15  21
HETATM   21  O   UNK N   1      27.671  39.981  52.177  0.00  0.00    -0.390 OA
HETATM   22  H   UNK N   1      26.755  40.217  51.878  0.00  0.00     0.210 HD
ENDBRANCH  15  21
BRANCH  16  23
HETATM   23  O   UNK N   1      26.889  38.747  54.705  0.00  0.00    -0.390 OA
HETATM   24  H   UNK N   1      26.898  37.991  54.063  0.00  0.00     0.210 HD
ENDBRANCH  16  23
BRANCH  17  25
HETATM   25  O   UNK N   1      28.769  39.157  56.806  0.00  0.00    -0.388 OA
HETATM   26  H   UNK N   1      29.726  38.910  56.702  0.00  0.00     0.210 HD
ENDBRANCH  17  25
ENDBRANCH  11  12
ENDBRANCH   4  11
BRANCH   6  27
HETATM   27  O   UNK N   1      28.630  45.727  57.930  0.00  0.00    -0.390 OA
HETATM   28  H   UNK N   1      28.633  46.714  58.027  0.00  0.00     0.210 HD
ENDBRANCH   6  27
BRANCH   1  29
HETATM   29  C   UNK N   1      33.622  42.583  59.353  0.00  0.00     0.174 C 
HETATM   30  O   UNK N   1      33.490  41.827  60.304  0.00  0.00    -0.646 OA
BRANCH  29  31
HETATM   31  O   UNK N   1      34.839  43.096  59.071  0.00  0.00    -0.773 OA
HETATM   32  H   UNK N   1      35.164  43.891  59.520  0.00  0.00     0.167 HD
ENDBRANCH  29  31
ENDBRANCH   1  29
TORSDOF 10
ENDMDL
MODEL 6
REMARK VINA RESULT:      -5.0     25.002     27.799
REMARK  10 active torsions:
REMARK  status: ('A' for Active; 'I' for Inactive)
REMARK    1  A    between atoms: C_2  and  O_3 
REMARK    2  A    between atoms: C_2  and  C_5 
REMARK    3  A    between atoms: C_8  and  O_9 
REMARK    4  A    between atoms: O_9  and  C_10 
REMARK    5  A    between atoms: C_12  and  C_22 
REMARK    6  A    between atoms: C_13  and  O_14 
REMARK    7  A    between atoms: C_16  and  O_17 
REMARK    8  A    between atoms: C_19  and  O_20 
REMARK    9  A    between atoms: C_22  and  O_23 
REMARK   10  A    between atoms: C_26  and  O_27 
ROOT
HETATM    1  C   UNK N   1      32.497  43.425  58.994  0.00  0.00     0.042 C 
HETATM    2  C   UNK N   1      31.638  43.498  60.040  0.00  0.00     0.152 C 
HETATM    3  O   UNK N   1      30.374  43.981  59.882  0.00  0.00    -0.331 OA
HETATM    4  C   UNK N   1      30.042  44.847  58.851  0.00  0.00     0.276 C 
HETATM    5  C   UNK N   1      30.545  44.259  57.522  0.00  0.00     0.084 C 
HETATM    6  C   UNK N   1      29.791  43.053  56.908  0.00  0.00     0.063 C 
HETATM    7  C   UNK N   1      30.821  42.628  55.850  0.00  0.00     0.039 C 
HETATM    8  C   UNK N   1      32.138  42.631  56.618  0.00  0.00     0.013 C 
HETATM    9  C   UNK N   1      32.037  43.832  57.594  0.00  0.00     0.039 C 
HETATM   10  C   UNK N   1      29.461  41.914  57.899  0.00  0.00     0.046 C 
ENDROOT
BRANCH   4  11
HETATM   11  O   UNK N   1      30.675  46.102  59.040  0.00  0.00    -0.328 OA
BRANCH  11  12
HETATM   12  C   UNK N   1      29.911  47.181  58.520  0.00  0.00     0.294 C 
HETATM   13  O   UNK N   1      30.708  47.997  57.669  0.00  0.00    -0.348 OA
HETATM   14  C   UNK N   1      29.927  49.036  57.096  0.00  0.00     0.179 C 
HETATM   15  C   UNK N   1      29.475  50.023  58.198  0.00  0.00     0.180 C 
HETATM   16  C   UNK N   1      28.650  49.257  59.250  0.00  0.00     0.183 C 
HETATM   17  C   UNK N   1      29.436  48.023  59.723  0.00  0.00     0.204 C 
BRANCH  14  18
HETATM   18  C   UNK N   1      30.774  49.752  56.035  0.00  0.00     0.198 C 
BRANCH  18  19
HETATM   19  O   UNK N   1      29.946  50.197  54.996  0.00  0.00    -0.398 OA
HETATM   20  H   UNK N   1      29.385  50.919  55.382  0.00  0.00     0.209 HD
ENDBRANCH  18  19
ENDBRANCH  14  18
BRANCH  15  21
HETATM   21  O   UNK N   1      28.696  51.045  57.626  0.00  0.00    -0.390 OA
HETATM   22  H   UNK N   1      28.151  51.441  58.354  0.00  0.00     0.210 HD
ENDBRANCH  15  21
BRANCH  16  23
HETATM   23  O   UNK N   1      28.377  50.074  60.360  0.00  0.00    -0.390 OA
HETATM   24  H   UNK N   1      28.121  50.968  60.016  0.00  0.00     0.210 HD
ENDBRANCH  16  23
BRANCH  17  25
HETATM   25  O   UNK N   1      28.666  47.251  60.610  0.00  0.00    -0.388 OA
HETATM   26  H   UNK N   1      27.722  47.290  60.300  0.00  0.00     0.210 HD
ENDBRANCH  17  25
ENDBRANCH  11  12
ENDBRANCH   4  11
BRANCH   6  27
HETATM   27  O   UNK N   1      28.604  43.450  56.263  0.00  0.00    -0.390 OA
HETATM   28  H   UNK N   1      28.579  43.012  55.374  0.00  0.00     0.210 HD
ENDBRANCH   6  27
BRANCH   1  29
HETATM   29  C   UNK N   1      33.891  42.935  59.198  0.00  0.00     0.174 C 
HETATM   30  O   UNK N   1      34.844  43.603  58.827  0.00  0.00    -0.646 OA
BRANCH  29  31
HETATM   31  O   UNK N   1      34.102  41.739  59.788  0.00  0.00    -0.773 OA
HETATM   32  H   UNK N   1      33.412  41.314  60.319  0.00  0.00     0.167 HD
ENDBRANCH  29  31
ENDBRANCH   1  29
TORSDOF 10
ENDMDL
MODEL 7
REMARK VINA RESULT:      -5.0      1.429      2.627
REMARK  10 active torsions:
REMARK  status: ('A' for Active; 'I' for Inactive)
REMARK    1  A    between atoms: C_2  and  O_3 
REMARK    2  A    between atoms: C_2  and  C_5 
REMARK    3  A    between atoms: C_8  and  O_9 
REMARK    4  A    between atoms: O_9  and  C_10 
REMARK    5  A    between atoms: C_12  and  C_22 
REMARK    6  A    between atoms: C_13  and  O_14 
REMARK    7  A    between atoms: C_16  and  O_17 
REMARK    8  A    between atoms: C_19  and  O_20 
REMARK    9  A    between atoms: C_22  and  O_23 
REMARK   10  A    between atoms: C_26  and  O_27 
ROOT
HETATM    1  C   UNK N   1      47.603  57.959  39.675  0.00  0.00     0.042 C 
HETATM    2  C   UNK N   1      48.564  58.858  40.000  0.00  0.00     0.152 C 
HETATM    3  O   UNK N   1      49.775  58.456  40.475  0.00  0.00    -0.331 OA
HETATM    4  C   UNK N   1      49.948  57.233  41.104  0.00  0.00     0.276 C 
HETATM    5  C   UNK N   1      49.339  56.127  40.227  0.00  0.00     0.084 C 
HETATM    6  C   UNK N   1      50.088  55.701  38.939  0.00  0.00     0.063 C 
HETATM    7  C   UNK N   1      48.976  54.884  38.263  0.00  0.00     0.039 C 
HETATM    8  C   UNK N   1      47.750  55.780  38.394  0.00  0.00     0.013 C 
HETATM    9  C   UNK N   1      47.889  56.461  39.781  0.00  0.00     0.039 C 
HETATM   10  C   UNK N   1      50.583  56.866  38.053  0.00  0.00     0.046 C 
ENDROOT
BRANCH   4  11
HETATM   11  O   UNK N   1      49.272  57.222  42.352  0.00  0.00    -0.328 OA
BRANCH  11  12
HETATM   12  C   UNK N   1      50.154  57.025  43.447  0.00  0.00     0.294 C 
HETATM   13  O   UNK N   1      49.650  56.024  44.325  0.00  0.00    -0.348 OA
HETATM   14  C   UNK N   1      50.565  55.780  45.384  0.00  0.00     0.179 C 
HETATM   15  C   UNK N   1      50.658  57.025  46.297  0.00  0.00     0.180 C 
HETATM   16  C   UNK N   1      51.127  58.230  45.457  0.00  0.00     0.183 C 
HETATM   17  C   UNK N   1      50.239  58.365  44.209  0.00  0.00     0.204 C 
BRANCH  14  18
HETATM   18  C   UNK N   1      50.079  54.558  46.175  0.00  0.00     0.198 C 
BRANCH  18  19
HETATM   19  O   UNK N   1      51.127  54.058  46.958  0.00  0.00    -0.398 OA
HETATM   20  H   UNK N   1      51.965  54.331  46.501  0.00  0.00     0.209 HD
ENDBRANCH  18  19
ENDBRANCH  14  18
BRANCH  15  21
HETATM   21  O   UNK N   1      51.570  56.781  47.339  0.00  0.00    -0.390 OA
HETATM   22  H   UNK N   1      51.087  56.931  48.193  0.00  0.00     0.210 HD
ENDBRANCH  15  21
BRANCH  16  23
HETATM   23  O   UNK N   1      51.047  59.418  46.202  0.00  0.00    -0.390 OA
HETATM   24  H   UNK N   1      51.939  59.577  46.605  0.00  0.00     0.210 HD
ENDBRANCH  16  23
BRANCH  17  25
HETATM   25  O   UNK N   1      50.706  59.395  43.374  0.00  0.00    -0.388 OA
HETATM   26  H   UNK N   1      50.381  60.256  43.749  0.00  0.00     0.210 HD
ENDBRANCH  17  25
ENDBRANCH  11  12
ENDBRANCH   4  11
BRANCH   6  27
HETATM   27  O   UNK N   1      51.176  54.853  39.222  0.00  0.00    -0.390 OA
HETATM   28  H   UNK N   1      51.429  54.989  40.171  0.00  0.00     0.210 HD
ENDBRANCH   6  27
BRANCH   1  29
HETATM   29  C   UNK N   1      46.268  58.422  39.200  0.00  0.00     0.174 C 
HETATM   30  O   UNK N   1      45.918  58.229  38.046  0.00  0.00    -0.646 OA
BRANCH  29  31
HETATM   31  O   UNK N   1      45.441  59.070  40.050  0.00  0.00    -0.773 OA
HETATM   32  H   UNK N   1      44.905  59.819  39.752  0.00  0.00     0.167 HD
ENDBRANCH  29  31
ENDBRANCH   1  29
TORSDOF 10
ENDMDL
MODEL 8
REMARK VINA RESULT:      -5.0     12.640     15.631
REMARK  10 active torsions:
REMARK  status: ('A' for Active; 'I' for Inactive)
REMARK    1  A    between atoms: C_2  and  O_3 
REMARK    2  A    between atoms: C_2  and  C_5 
REMARK    3  A    between atoms: C_8  and  O_9 
REMARK    4  A    between atoms: O_9  and  C_10 
REMARK    5  A    between atoms: C_12  and  C_22 
REMARK    6  A    between atoms: C_13  and  O_14 
REMARK    7  A    between atoms: C_16  and  O_17 
REMARK    8  A    between atoms: C_19  and  O_20 
REMARK    9  A    between atoms: C_22  and  O_23 
REMARK   10  A    between atoms: C_26  and  O_27 
ROOT
HETATM    1  C   UNK N   1      40.010  45.361  48.045  0.00  0.00     0.042 C 
HETATM    2  C   UNK N   1      38.812  45.504  47.427  0.00  0.00     0.152 C 
HETATM    3  O   UNK N   1      38.734  45.797  46.099  0.00  0.00    -0.331 OA
HETATM    4  C   UNK N   1      39.767  46.431  45.425  0.00  0.00     0.276 C 
HETATM    5  C   UNK N   1      41.084  45.694  45.720  0.00  0.00     0.084 C 
HETATM    6  C   UNK N   1      41.336  44.320  45.049  0.00  0.00     0.063 C 
HETATM    7  C   UNK N   1      42.537  43.852  45.885  0.00  0.00     0.039 C 
HETATM    8  C   UNK N   1      42.106  44.143  47.318  0.00  0.00     0.013 C 
HETATM    9  C   UNK N   1      41.305  45.469  47.241  0.00  0.00     0.039 C 
HETATM   10  C   UNK N   1      40.150  43.332  45.118  0.00  0.00     0.046 C 
ENDROOT
BRANCH   4  11
HETATM   11  O   UNK N   1      39.904  47.768  45.881  0.00  0.00    -0.328 OA
BRANCH  11  12
HETATM   12  C   UNK N   1      39.175  48.691  45.084  0.00  0.00     0.294 C 
HETATM   13  O   UNK N   1      38.262  48.008  44.231  0.00  0.00    -0.348 OA
HETATM   14  C   UNK N   1      37.487  48.934  43.484  0.00  0.00     0.179 C 
HETATM   15  C   UNK N   1      38.391  49.693  42.485  0.00  0.00     0.180 C 
HETATM   16  C   UNK N   1      39.493  50.433  43.268  0.00  0.00     0.183 C 
HETATM   17  C   UNK N   1      40.201  49.451  44.216  0.00  0.00     0.204 C 
BRANCH  14  18
HETATM   18  C   UNK N   1      36.385  48.162  42.746  0.00  0.00     0.198 C 
BRANCH  18  19
HETATM   19  O   UNK N   1      36.372  46.830  43.182  0.00  0.00    -0.398 OA
HETATM   20  H   UNK N   1      35.455  46.494  43.009  0.00  0.00     0.209 HD
ENDBRANCH  18  19
ENDBRANCH  14  18
BRANCH  15  21
HETATM   21  O   UNK N   1      37.620  50.613  41.753  0.00  0.00    -0.390 OA
HETATM   22  H   UNK N   1      38.163  51.437  41.652  0.00  0.00     0.210 HD
ENDBRANCH  15  21
BRANCH  16  23
HETATM   23  O   UNK N   1      40.444  50.982  42.391  0.00  0.00    -0.390 OA
HETATM   24  H   UNK N   1      40.315  50.556  41.506  0.00  0.00     0.210 HD
ENDBRANCH  16  23
BRANCH  17  25
HETATM   25  O   UNK N   1      41.144  50.120  45.015  0.00  0.00    -0.388 OA
HETATM   26  H   UNK N   1      41.876  49.478  45.216  0.00  0.00     0.210 HD
ENDBRANCH  17  25
ENDBRANCH  11  12
ENDBRANCH   4  11
BRANCH   6  27
HETATM   27  O   UNK N   1      41.733  44.457  43.706  0.00  0.00    -0.390 OA
HETATM   28  H   UNK N   1      42.414  43.761  43.517  0.00  0.00     0.210 HD
ENDBRANCH   6  27
BRANCH   1  29
HETATM   29  C   UNK N   1      40.073  45.085  49.509  0.00  0.00     0.174 C 
HETATM   30  O   UNK N   1      40.858  45.691  50.223  0.00  0.00    -0.646 OA
BRANCH  29  31
HETATM   31  O   UNK N   1      39.263  44.149  50.051  0.00  0.00    -0.773 OA
HETATM   32  H   UNK N   1      38.546  43.749  49.537  0.00  0.00     0.167 HD
ENDBRANCH  29  31
ENDBRANCH   1  29
TORSDOF 10
ENDMDL
MODEL 9
REMARK VINA RESULT:      -4.9     16.937     20.250
REMARK  10 active torsions:
REMARK  status: ('A' for Active; 'I' for Inactive)
REMARK    1  A    between atoms: C_2  and  O_3 
REMARK    2  A    between atoms: C_2  and  C_5 
REMARK    3  A    between atoms: C_8  and  O_9 
REMARK    4  A    between atoms: O_9  and  C_10 
REMARK    5  A    between atoms: C_12  and  C_22 
REMARK    6  A    between atoms: C_13  and  O_14 
REMARK    7  A    between atoms: C_16  and  O_17 
REMARK    8  A    between atoms: C_19  and  O_20 
REMARK    9  A    between atoms: C_22  and  O_23 
REMARK   10  A    between atoms: C_26  and  O_27 
ROOT
HETATM    1  C   UNK N   1      28.962  53.735  38.659  0.00  0.00     0.042 C 
HETATM    2  C   UNK N   1      28.854  52.665  39.486  0.00  0.00     0.152 C 
HETATM    3  O   UNK N   1      28.691  52.825  40.828  0.00  0.00    -0.331 OA
HETATM    4  C   UNK N   1      29.099  53.975  41.486  0.00  0.00     0.276 C 
HETATM    5  C   UNK N   1      28.544  55.202  40.744  0.00  0.00     0.084 C 
HETATM    6  C   UNK N   1      27.034  55.528  40.870  0.00  0.00     0.063 C 
HETATM    7  C   UNK N   1      26.907  56.555  39.734  0.00  0.00     0.039 C 
HETATM    8  C   UNK N   1      27.640  55.892  38.574  0.00  0.00     0.013 C 
HETATM    9  C   UNK N   1      28.840  55.152  39.220  0.00  0.00     0.039 C 
HETATM   10  C   UNK N   1      26.086  54.322  40.681  0.00  0.00     0.046 C 
ENDROOT
BRANCH   4  11
HETATM   11  O   UNK N   1      30.515  54.067  41.482  0.00  0.00    -0.328 OA
BRANCH  11  12
HETATM   12  C   UNK N   1      31.091  53.639  42.708  0.00  0.00     0.294 C 
HETATM   13  O   UNK N   1      31.942  54.648  43.242  0.00  0.00    -0.348 OA
HETATM   14  C   UNK N   1      32.465  54.247  44.500  0.00  0.00     0.179 C 
HETATM   15  C   UNK N   1      33.425  53.048  44.314  0.00  0.00     0.180 C 
HETATM   16  C   UNK N   1      32.653  51.883  43.665  0.00  0.00     0.183 C 
HETATM   17  C   UNK N   1      31.934  52.383  42.401  0.00  0.00     0.204 C 
BRANCH  14  18
HETATM   18  C   UNK N   1      33.198  55.442  45.125  0.00  0.00     0.198 C 
BRANCH  18  19
HETATM   19  O   UNK N   1      34.468  55.568  44.548  0.00  0.00    -0.398 OA
HETATM   20  H   UNK N   1      35.030  54.863  44.963  0.00  0.00     0.209 HD
ENDBRANCH  18  19
ENDBRANCH  14  18
BRANCH  15  21
HETATM   21  O   UNK N   1      33.934  52.651  45.563  0.00  0.00    -0.390 OA
HETATM   22  H   UNK N   1      34.611  53.325  45.832  0.00  0.00     0.210 HD
ENDBRANCH  15  21
BRANCH  16  23
HETATM   23  O   UNK N   1      33.528  50.843  43.308  0.00  0.00    -0.390 OA
HETATM   24  H   UNK N   1      34.437  51.230  43.237  0.00  0.00     0.210 HD
ENDBRANCH  16  23
BRANCH  17  25
HETATM   25  O   UNK N   1      31.141  51.365  41.842  0.00  0.00    -0.388 OA
HETATM   26  H   UNK N   1      30.579  51.777  41.134  0.00  0.00     0.210 HD
ENDBRANCH  17  25
ENDBRANCH  11  12
ENDBRANCH   4  11
BRANCH   6  27
HETATM   27  O   UNK N   1      26.733  56.154  42.094  0.00  0.00    -0.390 OA
HETATM   28  H   UNK N   1      25.748  56.135  42.211  0.00  0.00     0.210 HD
ENDBRANCH   6  27
BRANCH   1  29
HETATM   29  C   UNK N   1      29.187  53.538  37.199  0.00  0.00     0.174 C 
HETATM   30  O   UNK N   1      28.555  52.693  36.581  0.00  0.00    -0.646 OA
BRANCH  29  31
HETATM   31  O   UNK N   1      30.103  54.291  36.553  0.00  0.00    -0.773 OA
HETATM   32  H   UNK N   1      30.011  54.492  35.610  0.00  0.00     0.167 HD
ENDBRANCH  29  31
ENDBRANCH   1  29
TORSDOF 10
ENDMDL
