MODEL 1
REMARK VINA RESULT:      -7.6      0.000      0.000
REMARK  8 active torsions:
REMARK  status: ('A' for Active; 'I' for Inactive)
REMARK       I    between atoms: C_2  and  N_3 
REMARK    1  A    between atoms: C_2  and  C_15 
REMARK    2  A    between atoms: N_3  and  C_4 
REMARK    3  A    between atoms: C_4  and  C_5 
REMARK    4  A    between atoms: C_5  and  C_6 
REMARK    5  A    between atoms: C_9  and  O_10 
REMARK    6  A    between atoms: C_16  and  C_17 
REMARK    7  A    between atoms: C_19  and  O_20 
REMARK    8  A    between atoms: C_22  and  O_23 
ROOT
HETATM    1  O   UNK N   1      39.570  46.055  47.633  0.00  0.00    -0.269 OA
HETATM    2  C   UNK N   1      40.601  46.534  47.184  0.00  0.00     0.241 C 
HETATM    3  N   UNK N   1      41.817  46.132  47.645  0.00  0.00    -0.357 N 
HETATM    4  H   UNK N   1      42.666  46.528  47.214  0.00  0.00     0.162 HD
ENDROOT
BRANCH   2   5
HETATM    5  C   UNK N   1      40.555  47.543  46.101  0.00  0.00     0.075 C 
HETATM    6  C   UNK N   1      39.404  48.027  45.597  0.00  0.00     0.017 C 
BRANCH   6   7
HETATM    7  C   UNK N   1      39.359  49.070  44.527  0.00  0.00    -0.033 A 
HETATM    8  C   UNK N   1      38.576  48.932  43.358  0.00  0.00     0.050 A 
HETATM    9  C   UNK N   1      38.593  49.914  42.366  0.00  0.00     0.099 A 
HETATM   10  C   UNK N   1      39.396  51.055  42.523  0.00  0.00     0.098 A 
HETATM   11  C   UNK N   1      40.164  51.207  43.686  0.00  0.00     0.040 A 
HETATM   12  C   UNK N   1      40.141  50.226  44.682  0.00  0.00     0.014 A 
BRANCH   9  13
HETATM   13  O   UNK N   1      37.833  49.743  41.262  0.00  0.00    -0.358 OA
HETATM   14  H   UNK N   1      38.193  49.811  40.367  0.00  0.00     0.218 HD
ENDBRANCH   9  13
BRANCH  10  15
HETATM   15  O   UNK N   1      39.429  51.996  41.556  0.00  0.00    -0.358 OA
HETATM   16  H   UNK N   1      38.619  52.376  41.186  0.00  0.00     0.218 HD
ENDBRANCH  10  15
ENDBRANCH   6   7
ENDBRANCH   2   5
BRANCH   3  17
HETATM   17  C   UNK N   1      41.992  45.117  48.666  0.00  0.00     0.127 C 
BRANCH  17  18
HETATM   18  C   UNK N   1      42.264  45.786  50.018  0.00  0.00     0.058 C 
BRANCH  18  19
HETATM   19  C   UNK N   1      41.607  45.072  51.173  0.00  0.00    -0.057 A 
HETATM   20  C   UNK N   1      41.999  45.335  52.494  0.00  0.00     0.010 A 
HETATM   21  C   UNK N   1      41.373  44.672  53.557  0.00  0.00     0.037 A 
HETATM   22  C   UNK N   1      40.358  43.740  53.308  0.00  0.00     0.065 A 
HETATM   23  C   UNK N   1      39.969  43.471  51.988  0.00  0.00     0.037 A 
HETATM   24  C   UNK N   1      40.586  44.136  50.927  0.00  0.00     0.010 A 
BRANCH  22  25
HETATM   25  O   UNK N   1      39.763  43.110  54.341  0.00  0.00    -0.361 OA
HETATM   26  H   UNK N   1      39.277  43.597  55.021  0.00  0.00     0.217 HD
ENDBRANCH  22  25
ENDBRANCH  18  19
ENDBRANCH  17  18
ENDBRANCH   3  17
TORSDOF 8
ENDMDL
MODEL 2
REMARK VINA RESULT:      -7.2      1.670      9.832
REMARK  8 active torsions:
REMARK  status: ('A' for Active; 'I' for Inactive)
REMARK       I    between atoms: C_2  and  N_3 
REMARK    1  A    between atoms: C_2  and  C_15 
REMARK    2  A    between atoms: N_3  and  C_4 
REMARK    3  A    between atoms: C_4  and  C_5 
REMARK    4  A    between atoms: C_5  and  C_6 
REMARK    5  A    between atoms: C_9  and  O_10 
REMARK    6  A    between atoms: C_16  and  C_17 
REMARK    7  A    between atoms: C_19  and  O_20 
REMARK    8  A    between atoms: C_22  and  O_23 
ROOT
HETATM    1  O   UNK N   1      43.804  48.184  47.267  0.00  0.00    -0.269 OA
HETATM    2  C   UNK N   1      42.664  47.831  47.526  0.00  0.00     0.241 C 
HETATM    3  N   UNK N   1      41.642  48.082  46.661  0.00  0.00    -0.357 N 
HETATM    4  H   UNK N   1      40.700  47.734  46.893  0.00  0.00     0.162 HD
ENDROOT
BRANCH   2   5
HETATM    5  C   UNK N   1      42.367  47.089  48.773  0.00  0.00     0.075 C 
HETATM    6  C   UNK N   1      41.546  46.023  48.815  0.00  0.00     0.017 C 
BRANCH   6   7
HETATM    7  C   UNK N   1      41.273  45.254  50.068  0.00  0.00    -0.033 A 
HETATM    8  C   UNK N   1      41.886  45.565  51.303  0.00  0.00     0.050 A 
HETATM    9  C   UNK N   1      41.631  44.797  52.441  0.00  0.00     0.099 A 
HETATM   10  C   UNK N   1      40.758  43.700  52.364  0.00  0.00     0.098 A 
HETATM   11  C   UNK N   1      40.134  43.395  51.146  0.00  0.00     0.040 A 
HETATM   12  C   UNK N   1      40.385  44.168  50.009  0.00  0.00     0.014 A 
BRANCH   9  13
HETATM   13  O   UNK N   1      42.239  45.124  53.601  0.00  0.00    -0.358 OA
HETATM   14  H   UNK N   1      42.538  44.460  54.237  0.00  0.00     0.218 HD
ENDBRANCH   9  13
BRANCH  10  15
HETATM   15  O   UNK N   1      40.525  42.944  53.458  0.00  0.00    -0.358 OA
HETATM   16  H   UNK N   1      40.955  43.128  54.305  0.00  0.00     0.218 HD
ENDBRANCH  10  15
ENDBRANCH   6   7
ENDBRANCH   2   5
BRANCH   3  17
HETATM   17  C   UNK N   1      41.816  48.755  45.388  0.00  0.00     0.127 C 
BRANCH  17  18
HETATM   18  C   UNK N   1      40.927  50.004  45.339  0.00  0.00     0.058 C 
BRANCH  18  19
HETATM   19  C   UNK N   1      40.000  50.020  44.149  0.00  0.00    -0.057 A 
HETATM   20  C   UNK N   1      40.122  51.007  43.159  0.00  0.00     0.010 A 
HETATM   21  C   UNK N   1      39.261  51.004  42.055  0.00  0.00     0.037 A 
HETATM   22  C   UNK N   1      38.270  50.022  41.936  0.00  0.00     0.065 A 
HETATM   23  C   UNK N   1      38.142  49.038  42.926  0.00  0.00     0.037 A 
HETATM   24  C   UNK N   1      39.004  49.035  44.024  0.00  0.00     0.010 A 
BRANCH  22  25
HETATM   25  O   UNK N   1      37.448  50.031  40.866  0.00  0.00    -0.361 OA
HETATM   26  H   UNK N   1      37.492  49.343  40.187  0.00  0.00     0.217 HD
ENDBRANCH  22  25
ENDBRANCH  18  19
ENDBRANCH  17  18
ENDBRANCH   3  17
TORSDOF 8
ENDMDL
MODEL 3
REMARK VINA RESULT:      -7.1      1.207      9.910
REMARK  8 active torsions:
REMARK  status: ('A' for Active; 'I' for Inactive)
REMARK       I    between atoms: C_2  and  N_3 
REMARK    1  A    between atoms: C_2  and  C_15 
REMARK    2  A    between atoms: N_3  and  C_4 
REMARK    3  A    between atoms: C_4  and  C_5 
REMARK    4  A    between atoms: C_5  and  C_6 
REMARK    5  A    between atoms: C_9  and  O_10 
REMARK    6  A    between atoms: C_16  and  C_17 
REMARK    7  A    between atoms: C_19  and  O_20 
REMARK    8  A    between atoms: C_22  and  O_23 
ROOT
HETATM    1  O   UNK N   1      39.190  44.747  46.169  0.00  0.00    -0.269 OA
HETATM    2  C   UNK N   1      39.872  45.366  46.971  0.00  0.00     0.241 C 
HETATM    3  N   UNK N   1      40.476  46.535  46.620  0.00  0.00    -0.357 N 
HETATM    4  H   UNK N   1      41.010  47.051  47.335  0.00  0.00     0.162 HD
ENDROOT
BRANCH   2   5
HETATM    5  C   UNK N   1      40.031  44.879  48.361  0.00  0.00     0.075 C 
HETATM    6  C   UNK N   1      40.936  45.389  49.218  0.00  0.00     0.017 C 
BRANCH   6   7
HETATM    7  C   UNK N   1      41.074  44.919  50.631  0.00  0.00    -0.033 A 
HETATM    8  C   UNK N   1      40.222  43.943  51.197  0.00  0.00     0.050 A 
HETATM    9  C   UNK N   1      40.363  43.561  52.533  0.00  0.00     0.099 A 
HETATM   10  C   UNK N   1      41.358  44.151  53.330  0.00  0.00     0.098 A 
HETATM   11  C   UNK N   1      42.216  45.108  52.770  0.00  0.00     0.040 A 
HETATM   12  C   UNK N   1      42.079  45.485  51.431  0.00  0.00     0.014 A 
BRANCH   9  13
HETATM   13  O   UNK N   1      39.527  42.629  53.038  0.00  0.00    -0.358 OA
HETATM   14  H   UNK N   1      38.730  42.338  52.573  0.00  0.00     0.218 HD
ENDBRANCH   9  13
BRANCH  10  15
HETATM   15  O   UNK N   1      41.482  43.797  54.626  0.00  0.00    -0.358 OA
HETATM   16  H   UNK N   1      41.107  42.974  54.968  0.00  0.00     0.218 HD
ENDBRANCH  10  15
ENDBRANCH   6   7
ENDBRANCH   2   5
BRANCH   3  17
HETATM   17  C   UNK N   1      40.353  47.138  45.306  0.00  0.00     0.127 C 
BRANCH  17  18
HETATM   18  C   UNK N   1      39.120  48.048  45.270  0.00  0.00     0.058 C 
BRANCH  18  19
HETATM   19  C   UNK N   1      39.301  49.251  44.377  0.00  0.00    -0.057 A 
HETATM   20  C   UNK N   1      38.690  49.305  43.115  0.00  0.00     0.010 A 
HETATM   21  C   UNK N   1      38.859  50.432  42.302  0.00  0.00     0.037 A 
HETATM   22  C   UNK N   1      39.641  51.507  42.739  0.00  0.00     0.065 A 
HETATM   23  C   UNK N   1      40.258  51.454  43.996  0.00  0.00     0.037 A 
HETATM   24  C   UNK N   1      40.086  50.334  44.813  0.00  0.00     0.010 A 
BRANCH  22  25
HETATM   25  O   UNK N   1      39.794  52.587  41.945  0.00  0.00    -0.361 OA
HETATM   26  H   UNK N   1      39.345  52.657  41.091  0.00  0.00     0.217 HD
ENDBRANCH  22  25
ENDBRANCH  18  19
ENDBRANCH  17  18
ENDBRANCH   3  17
TORSDOF 8
ENDMDL
MODEL 4
REMARK VINA RESULT:      -7.1      4.138      9.220
REMARK  8 active torsions:
REMARK  status: ('A' for Active; 'I' for Inactive)
REMARK       I    between atoms: C_2  and  N_3 
REMARK    1  A    between atoms: C_2  and  C_15 
REMARK    2  A    between atoms: N_3  and  C_4 
REMARK    3  A    between atoms: C_4  and  C_5 
REMARK    4  A    between atoms: C_5  and  C_6 
REMARK    5  A    between atoms: C_9  and  O_10 
REMARK    6  A    between atoms: C_16  and  C_17 
REMARK    7  A    between atoms: C_19  and  O_20 
REMARK    8  A    between atoms: C_22  and  O_23 
ROOT
HETATM    1  O   UNK N   1      39.690  48.633  46.759  0.00  0.00    -0.269 OA
HETATM    2  C   UNK N   1      39.881  47.826  45.862  0.00  0.00     0.241 C 
HETATM    3  N   UNK N   1      39.668  48.164  44.561  0.00  0.00    -0.357 N 
HETATM    4  H   UNK N   1      39.879  47.470  43.828  0.00  0.00     0.162 HD
ENDROOT
BRANCH   2   5
HETATM    5  C   UNK N   1      40.384  46.466  46.165  0.00  0.00     0.075 C 
HETATM    6  C   UNK N   1      41.270  45.820  45.384  0.00  0.00     0.017 C 
BRANCH   6   7
HETATM    7  C   UNK N   1      41.803  44.461  45.709  0.00  0.00    -0.033 A 
HETATM    8  C   UNK N   1      42.500  43.670  44.768  0.00  0.00     0.050 A 
HETATM    9  C   UNK N   1      42.947  42.390  45.102  0.00  0.00     0.099 A 
HETATM   10  C   UNK N   1      42.703  41.875  46.386  0.00  0.00     0.098 A 
HETATM   11  C   UNK N   1      42.026  42.661  47.330  0.00  0.00     0.040 A 
HETATM   12  C   UNK N   1      41.584  43.944  46.995  0.00  0.00     0.014 A 
BRANCH   9  13
HETATM   13  O   UNK N   1      43.606  41.664  44.173  0.00  0.00    -0.358 OA
HETATM   14  H   UNK N   1      44.458  41.242  44.351  0.00  0.00     0.218 HD
ENDBRANCH   9  13
BRANCH  10  15
HETATM   15  O   UNK N   1      43.117  40.631  46.705  0.00  0.00    -0.358 OA
HETATM   16  H   UNK N   1      43.866  40.212  46.257  0.00  0.00     0.218 HD
ENDBRANCH  10  15
ENDBRANCH   6   7
ENDBRANCH   2   5
BRANCH   3  17
HETATM   17  C   UNK N   1      39.225  49.478  44.136  0.00  0.00     0.127 C 
BRANCH  17  18
HETATM   18  C   UNK N   1      38.491  49.366  42.795  0.00  0.00     0.058 C 
BRANCH  18  19
HETATM   19  C   UNK N   1      36.994  49.255  42.948  0.00  0.00    -0.057 A 
HETATM   20  C   UNK N   1      36.212  50.395  43.188  0.00  0.00     0.010 A 
HETATM   21  C   UNK N   1      34.823  50.279  43.319  0.00  0.00     0.037 A 
HETATM   22  C   UNK N   1      34.207  49.025  43.216  0.00  0.00     0.065 A 
HETATM   23  C   UNK N   1      34.987  47.884  42.982  0.00  0.00     0.037 A 
HETATM   24  C   UNK N   1      36.371  47.998  42.845  0.00  0.00     0.010 A 
BRANCH  22  25
HETATM   25  O   UNK N   1      32.868  48.928  43.343  0.00  0.00    -0.361 OA
HETATM   26  H   UNK N   1      32.392  49.374  44.058  0.00  0.00     0.217 HD
ENDBRANCH  22  25
ENDBRANCH  18  19
ENDBRANCH  17  18
ENDBRANCH   3  17
TORSDOF 8
ENDMDL
MODEL 5
REMARK VINA RESULT:      -7.1      3.420      9.486
REMARK  8 active torsions:
REMARK  status: ('A' for Active; 'I' for Inactive)
REMARK       I    between atoms: C_2  and  N_3 
REMARK    1  A    between atoms: C_2  and  C_15 
REMARK    2  A    between atoms: N_3  and  C_4 
REMARK    3  A    between atoms: C_4  and  C_5 
REMARK    4  A    between atoms: C_5  and  C_6 
REMARK    5  A    between atoms: C_9  and  O_10 
REMARK    6  A    between atoms: C_16  and  C_17 
REMARK    7  A    between atoms: C_19  and  O_20 
REMARK    8  A    between atoms: C_22  and  O_23 
ROOT
HETATM    1  O   UNK N   1      40.314  49.816  44.067  0.00  0.00    -0.269 OA
HETATM    2  C   UNK N   1      39.648  49.007  44.695  0.00  0.00     0.241 C 
HETATM    3  N   UNK N   1      38.455  48.561  44.214  0.00  0.00    -0.357 N 
HETATM    4  H   UNK N   1      37.940  47.847  44.751  0.00  0.00     0.162 HD
ENDROOT
BRANCH   2   5
HETATM    5  C   UNK N   1      40.138  48.463  45.982  0.00  0.00     0.075 C 
HETATM    6  C   UNK N   1      39.977  47.176  46.344  0.00  0.00     0.017 C 
BRANCH   6   7
HETATM    7  C   UNK N   1      40.502  46.619  47.629  0.00  0.00    -0.033 A 
HETATM    8  C   UNK N   1      39.812  45.635  48.372  0.00  0.00     0.050 A 
HETATM    9  C   UNK N   1      40.320  45.170  49.587  0.00  0.00     0.099 A 
HETATM   10  C   UNK N   1      41.529  45.684  50.083  0.00  0.00     0.098 A 
HETATM   11  C   UNK N   1      42.227  46.650  49.344  0.00  0.00     0.040 A 
HETATM   12  C   UNK N   1      41.720  47.110  48.125  0.00  0.00     0.014 A 
BRANCH   9  13
HETATM   13  O   UNK N   1      39.629  44.231  50.269  0.00  0.00    -0.358 OA
HETATM   14  H   UNK N   1      38.708  44.355  50.535  0.00  0.00     0.218 HD
ENDBRANCH   9  13
BRANCH  10  15
HETATM   15  O   UNK N   1      42.012  45.250  51.267  0.00  0.00    -0.358 OA
HETATM   16  H   UNK N   1      41.941  44.325  51.538  0.00  0.00     0.218 HD
ENDBRANCH  10  15
ENDBRANCH   6   7
ENDBRANCH   2   5
BRANCH   3  17
HETATM   17  C   UNK N   1      37.895  48.982  42.944  0.00  0.00     0.127 C 
BRANCH  17  18
HETATM   18  C   UNK N   1      36.569  48.252  42.697  0.00  0.00     0.058 C 
BRANCH  18  19
HETATM   19  C   UNK N   1      35.363  49.086  43.050  0.00  0.00    -0.057 A 
HETATM   20  C   UNK N   1      34.092  48.501  43.150  0.00  0.00     0.010 A 
HETATM   21  C   UNK N   1      32.982  49.285  43.488  0.00  0.00     0.037 A 
HETATM   22  C   UNK N   1      33.133  50.657  43.722  0.00  0.00     0.065 A 
HETATM   23  C   UNK N   1      34.400  51.246  43.617  0.00  0.00     0.037 A 
HETATM   24  C   UNK N   1      35.510  50.465  43.287  0.00  0.00     0.010 A 
BRANCH  22  25
HETATM   25  O   UNK N   1      32.056  51.400  44.049  0.00  0.00    -0.361 OA
HETATM   26  H   UNK N   1      31.515  51.834  43.373  0.00  0.00     0.217 HD
ENDBRANCH  22  25
ENDBRANCH  18  19
ENDBRANCH  17  18
ENDBRANCH   3  17
TORSDOF 8
ENDMDL
MODEL 6
REMARK VINA RESULT:      -6.9      3.433      9.499
REMARK  8 active torsions:
REMARK  status: ('A' for Active; 'I' for Inactive)
REMARK       I    between atoms: C_2  and  N_3 
REMARK    1  A    between atoms: C_2  and  C_15 
REMARK    2  A    between atoms: N_3  and  C_4 
REMARK    3  A    between atoms: C_4  and  C_5 
REMARK    4  A    between atoms: C_5  and  C_6 
REMARK    5  A    between atoms: C_9  and  O_10 
REMARK    6  A    between atoms: C_16  and  C_17 
REMARK    7  A    between atoms: C_19  and  O_20 
REMARK    8  A    between atoms: C_22  and  O_23 
ROOT
HETATM    1  O   UNK N   1      40.439  49.660  44.349  0.00  0.00    -0.269 OA
HETATM    2  C   UNK N   1      39.714  48.804  44.834  0.00  0.00     0.241 C 
HETATM    3  N   UNK N   1      38.521  48.492  44.258  0.00  0.00    -0.357 N 
HETATM    4  H   UNK N   1      37.954  47.736  44.671  0.00  0.00     0.162 HD
ENDROOT
BRANCH   2   5
HETATM    5  C   UNK N   1      40.132  48.057  46.042  0.00  0.00     0.075 C 
HETATM    6  C   UNK N   1      39.507  46.943  46.469  0.00  0.00     0.017 C 
BRANCH   6   7
HETATM    7  C   UNK N   1      39.950  46.171  47.670  0.00  0.00    -0.033 A 
HETATM    8  C   UNK N   1      41.225  46.336  48.257  0.00  0.00     0.050 A 
HETATM    9  C   UNK N   1      41.611  45.566  49.356  0.00  0.00     0.099 A 
HETATM   10  C   UNK N   1      40.728  44.613  49.889  0.00  0.00     0.098 A 
HETATM   11  C   UNK N   1      39.456  44.454  49.322  0.00  0.00     0.040 A 
HETATM   12  C   UNK N   1      39.068  45.230  48.225  0.00  0.00     0.014 A 
BRANCH   9  13
HETATM   13  O   UNK N   1      42.840  45.751  49.885  0.00  0.00    -0.358 OA
HETATM   14  H   UNK N   1      43.034  46.460  50.514  0.00  0.00     0.218 HD
ENDBRANCH   9  13
BRANCH  10  15
HETATM   15  O   UNK N   1      41.107  43.854  50.939  0.00  0.00    -0.358 OA
HETATM   16  H   UNK N   1      40.480  43.579  51.622  0.00  0.00     0.218 HD
ENDBRANCH  10  15
ENDBRANCH   6   7
ENDBRANCH   2   5
BRANCH   3  17
HETATM   17  C   UNK N   1      38.027  49.119  43.047  0.00  0.00     0.127 C 
BRANCH  17  18
HETATM   18  C   UNK N   1      36.727  48.437  42.606  0.00  0.00     0.058 C 
BRANCH  18  19
HETATM   19  C   UNK N   1      35.491  49.177  43.053  0.00  0.00    -0.057 A 
HETATM   20  C   UNK N   1      35.541  50.551  43.333  0.00  0.00     0.010 A 
HETATM   21  C   UNK N   1      34.384  51.228  43.738  0.00  0.00     0.037 A 
HETATM   22  C   UNK N   1      33.173  50.537  43.872  0.00  0.00     0.065 A 
HETATM   23  C   UNK N   1      33.121  49.163  43.599  0.00  0.00     0.037 A 
HETATM   24  C   UNK N   1      34.272  48.488  43.188  0.00  0.00     0.010 A 
BRANCH  22  25
HETATM   25  O   UNK N   1      32.066  51.202  44.261  0.00  0.00    -0.361 OA
HETATM   26  H   UNK N   1      31.308  50.741  44.648  0.00  0.00     0.217 HD
ENDBRANCH  22  25
ENDBRANCH  18  19
ENDBRANCH  17  18
ENDBRANCH   3  17
TORSDOF 8
ENDMDL
MODEL 7
REMARK VINA RESULT:      -6.7      2.794      4.646
REMARK  8 active torsions:
REMARK  status: ('A' for Active; 'I' for Inactive)
REMARK       I    between atoms: C_2  and  N_3 
REMARK    1  A    between atoms: C_2  and  C_15 
REMARK    2  A    between atoms: N_3  and  C_4 
REMARK    3  A    between atoms: C_4  and  C_5 
REMARK    4  A    between atoms: C_5  and  C_6 
REMARK    5  A    between atoms: C_9  and  O_10 
REMARK    6  A    between atoms: C_16  and  C_17 
REMARK    7  A    between atoms: C_19  and  O_20 
REMARK    8  A    between atoms: C_22  and  O_23 
ROOT
HETATM    1  O   UNK N   1      39.163  46.196  47.715  0.00  0.00    -0.269 OA
HETATM    2  C   UNK N   1      40.225  46.592  47.261  0.00  0.00     0.241 C 
HETATM    3  N   UNK N   1      41.397  45.980  47.588  0.00  0.00    -0.357 N 
HETATM    4  H   UNK N   1      42.270  46.315  47.154  0.00  0.00     0.162 HD
ENDROOT
BRANCH   2   5
HETATM    5  C   UNK N   1      40.265  47.731  46.315  0.00  0.00     0.075 C 
HETATM    6  C   UNK N   1      39.358  47.901  45.334  0.00  0.00     0.017 C 
BRANCH   6   7
HETATM    7  C   UNK N   1      39.379  49.068  44.400  0.00  0.00    -0.033 A 
HETATM    8  C   UNK N   1      38.710  49.062  43.155  0.00  0.00     0.050 A 
HETATM    9  C   UNK N   1      38.788  50.160  42.296  0.00  0.00     0.099 A 
HETATM   10  C   UNK N   1      39.539  51.288  42.667  0.00  0.00     0.098 A 
HETATM   11  C   UNK N   1      40.191  51.308  43.907  0.00  0.00     0.040 A 
HETATM   12  C   UNK N   1      40.108  50.210  44.768  0.00  0.00     0.014 A 
BRANCH   9  13
HETATM   13  O   UNK N   1      38.138  50.113  41.113  0.00  0.00    -0.358 OA
HETATM   14  H   UNK N   1      37.797  49.289  40.739  0.00  0.00     0.218 HD
ENDBRANCH   9  13
BRANCH  10  15
HETATM   15  O   UNK N   1      39.630  52.343  41.830  0.00  0.00    -0.358 OA
HETATM   16  H   UNK N   1      39.000  53.076  41.863  0.00  0.00     0.218 HD
ENDBRANCH  10  15
ENDBRANCH   6   7
ENDBRANCH   2   5
BRANCH   3  17
HETATM   17  C   UNK N   1      41.481  44.827  48.464  0.00  0.00     0.127 C 
BRANCH  17  18
HETATM   18  C   UNK N   1      40.979  43.580  47.726  0.00  0.00     0.058 C 
BRANCH  18  19
HETATM   19  C   UNK N   1      41.961  43.064  46.705  0.00  0.00    -0.057 A 
HETATM   20  C   UNK N   1      42.189  43.765  45.511  0.00  0.00     0.010 A 
HETATM   21  C   UNK N   1      43.111  43.279  44.576  0.00  0.00     0.037 A 
HETATM   22  C   UNK N   1      43.806  42.089  44.824  0.00  0.00     0.065 A 
HETATM   23  C   UNK N   1      43.577  41.383  46.013  0.00  0.00     0.037 A 
HETATM   24  C   UNK N   1      42.663  41.869  46.950  0.00  0.00     0.010 A 
BRANCH  22  25
HETATM   25  O   UNK N   1      44.693  41.633  43.915  0.00  0.00    -0.361 OA
HETATM   26  H   UNK N   1      45.571  42.029  43.819  0.00  0.00     0.217 HD
ENDBRANCH  22  25
ENDBRANCH  18  19
ENDBRANCH  17  18
ENDBRANCH   3  17
TORSDOF 8
ENDMDL
MODEL 8
REMARK VINA RESULT:      -6.6      9.700     12.803
REMARK  8 active torsions:
REMARK  status: ('A' for Active; 'I' for Inactive)
REMARK       I    between atoms: C_2  and  N_3 
REMARK    1  A    between atoms: C_2  and  C_15 
REMARK    2  A    between atoms: N_3  and  C_4 
REMARK    3  A    between atoms: C_4  and  C_5 
REMARK    4  A    between atoms: C_5  and  C_6 
REMARK    5  A    between atoms: C_9  and  O_10 
REMARK    6  A    between atoms: C_16  and  C_17 
REMARK    7  A    between atoms: C_19  and  O_20 
REMARK    8  A    between atoms: C_22  and  O_23 
ROOT
HETATM    1  O   UNK N   1      31.989  49.059  42.818  0.00  0.00    -0.269 OA
HETATM    2  C   UNK N   1      32.161  50.179  42.362  0.00  0.00     0.241 C 
HETATM    3  N   UNK N   1      33.129  50.996  42.864  0.00  0.00    -0.357 N 
HETATM    4  H   UNK N   1      33.272  51.919  42.428  0.00  0.00     0.162 HD
ENDROOT
BRANCH   2   5
HETATM    5  C   UNK N   1      31.344  50.667  41.228  0.00  0.00     0.075 C 
HETATM    6  C   UNK N   1      30.964  51.952  41.096  0.00  0.00     0.017 C 
BRANCH   6   7
HETATM    7  C   UNK N   1      30.167  52.450  39.933  0.00  0.00    -0.033 A 
HETATM    8  C   UNK N   1      30.643  53.448  39.052  0.00  0.00     0.050 A 
HETATM    9  C   UNK N   1      29.850  53.910  38.000  0.00  0.00     0.099 A 
HETATM   10  C   UNK N   1      28.562  53.383  37.810  0.00  0.00     0.098 A 
HETATM   11  C   UNK N   1      28.089  52.382  38.669  0.00  0.00     0.040 A 
HETATM   12  C   UNK N   1      28.886  51.916  39.719  0.00  0.00     0.014 A 
BRANCH   9  13
HETATM   13  O   UNK N   1      30.340  54.867  37.183  0.00  0.00    -0.358 OA
HETATM   14  H   UNK N   1      30.257  54.823  36.221  0.00  0.00     0.218 HD
ENDBRANCH   9  13
BRANCH  10  15
HETATM   15  O   UNK N   1      27.786  53.843  36.805  0.00  0.00    -0.358 OA
HETATM   16  H   UNK N   1      27.811  53.450  35.921  0.00  0.00     0.218 HD
ENDBRANCH  10  15
ENDBRANCH   6   7
ENDBRANCH   2   5
BRANCH   3  17
HETATM   17  C   UNK N   1      34.023  50.613  43.939  0.00  0.00     0.127 C 
BRANCH  17  18
HETATM   18  C   UNK N   1      33.938  51.641  45.073  0.00  0.00     0.058 C 
BRANCH  18  19
HETATM   19  C   UNK N   1      33.164  52.878  44.691  0.00  0.00    -0.057 A 
HETATM   20  C   UNK N   1      33.829  54.024  44.226  0.00  0.00     0.010 A 
HETATM   21  C   UNK N   1      33.098  55.161  43.865  0.00  0.00     0.037 A 
HETATM   22  C   UNK N   1      31.702  55.166  43.970  0.00  0.00     0.065 A 
HETATM   23  C   UNK N   1      31.035  54.026  44.440  0.00  0.00     0.037 A 
HETATM   24  C   UNK N   1      31.761  52.887  44.794  0.00  0.00     0.010 A 
BRANCH  22  25
HETATM   25  O   UNK N   1      31.010  56.269  43.618  0.00  0.00    -0.361 OA
HETATM   26  H   UNK N   1      30.265  56.225  43.001  0.00  0.00     0.217 HD
ENDBRANCH  22  25
ENDBRANCH  18  19
ENDBRANCH  17  18
ENDBRANCH   3  17
TORSDOF 8
ENDMDL
MODEL 9
REMARK VINA RESULT:      -6.6      0.628      1.426
REMARK  8 active torsions:
REMARK  status: ('A' for Active; 'I' for Inactive)
REMARK       I    between atoms: C_2  and  N_3 
REMARK    1  A    between atoms: C_2  and  C_15 
REMARK    2  A    between atoms: N_3  and  C_4 
REMARK    3  A    between atoms: C_4  and  C_5 
REMARK    4  A    between atoms: C_5  and  C_6 
REMARK    5  A    between atoms: C_9  and  O_10 
REMARK    6  A    between atoms: C_16  and  C_17 
REMARK    7  A    between atoms: C_19  and  O_20 
REMARK    8  A    between atoms: C_22  and  O_23 
ROOT
HETATM    1  O   UNK N   1      39.241  45.924  47.831  0.00  0.00    -0.269 OA
HETATM    2  C   UNK N   1      40.187  46.173  47.099  0.00  0.00     0.241 C 
HETATM    3  N   UNK N   1      41.425  45.672  47.363  0.00  0.00    -0.357 N 
HETATM    4  H   UNK N   1      42.191  45.869  46.701  0.00  0.00     0.162 HD
ENDROOT
BRANCH   2   5
HETATM    5  C   UNK N   1      40.004  46.999  45.883  0.00  0.00     0.075 C 
HETATM    6  C   UNK N   1      39.498  48.246  45.912  0.00  0.00     0.017 C 
BRANCH   6   7
HETATM    7  C   UNK N   1      39.345  49.091  44.689  0.00  0.00    -0.033 A 
HETATM    8  C   UNK N   1      40.009  50.329  44.528  0.00  0.00     0.050 A 
HETATM    9  C   UNK N   1      39.808  51.105  43.384  0.00  0.00     0.099 A 
HETATM   10  C   UNK N   1      38.936  50.657  42.378  0.00  0.00     0.098 A 
HETATM   11  C   UNK N   1      38.286  49.423  42.524  0.00  0.00     0.040 A 
HETATM   12  C   UNK N   1      38.493  48.645  43.666  0.00  0.00     0.014 A 
BRANCH   9  13
HETATM   13  O   UNK N   1      40.457  52.283  43.271  0.00  0.00    -0.358 OA
HETATM   14  H   UNK N   1      40.473  52.939  43.981  0.00  0.00     0.218 HD
ENDBRANCH   9  13
BRANCH  10  15
HETATM   15  O   UNK N   1      38.725  51.414  41.281  0.00  0.00    -0.358 OA
HETATM   16  H   UNK N   1      37.836  51.675  41.004  0.00  0.00     0.218 HD
ENDBRANCH  10  15
ENDBRANCH   6   7
ENDBRANCH   2   5
BRANCH   3  17
HETATM   17  C   UNK N   1      41.718  44.811  48.493  0.00  0.00     0.127 C 
BRANCH  17  18
HETATM   18  C   UNK N   1      41.974  45.666  49.740  0.00  0.00     0.058 C 
BRANCH  18  19
HETATM   19  C   UNK N   1      41.469  45.025  51.008  0.00  0.00    -0.057 A 
HETATM   20  C   UNK N   1      41.972  45.416  52.258  0.00  0.00     0.010 A 
HETATM   21  C   UNK N   1      41.486  44.820  53.428  0.00  0.00     0.037 A 
HETATM   22  C   UNK N   1      40.501  43.828  53.358  0.00  0.00     0.065 A 
HETATM   23  C   UNK N   1      40.000  43.431  52.110  0.00  0.00     0.037 A 
HETATM   24  C   UNK N   1      40.478  44.029  50.942  0.00  0.00     0.010 A 
BRANCH  22  25
HETATM   25  O   UNK N   1      40.040  43.263  54.493  0.00  0.00    -0.361 OA
HETATM   26  H   UNK N   1      40.627  42.782  55.095  0.00  0.00     0.217 HD
ENDBRANCH  22  25
ENDBRANCH  18  19
ENDBRANCH  17  18
ENDBRANCH   3  17
TORSDOF 8
ENDMDL
