MODEL 1
REMARK VINA RESULT:      -7.8      0.000      0.000
REMARK  2 active torsions:
REMARK  status: ('A' for Active; 'I' for Inactive)
REMARK    1  A    between atoms: C_10  and  C_11 
REMARK       I    between atoms: N_18  and  C_20 
REMARK    2  A    between atoms: C_20  and  C_22 
ROOT
HETATM    1  C   UNK N   1      40.338  44.695  48.033  0.00  0.00    -0.005 A 
HETATM    2  C   UNK N   1      41.045  44.238  46.934  0.00  0.00     0.003 A 
HETATM    3  C   UNK N   1      41.025  45.249  45.996  0.00  0.00     0.052 A 
HETATM    4  C   UNK N   1      41.685  45.107  44.765  0.00  0.00     0.031 A 
HETATM    5  C   UNK N   1      42.382  43.910  44.517  0.00  0.00     0.002 A 
HETATM    6  C   UNK N   1      42.414  42.887  45.488  0.00  0.00     0.001 A 
HETATM    7  C   UNK N   1      41.744  43.049  46.714  0.00  0.00     0.014 A 
HETATM    8  N   UNK N   1      40.332  46.316  46.476  0.00  0.00    -0.291 N 
HETATM    9  C   UNK N   1      39.936  45.980  47.729  0.00  0.00     0.112 A 
HETATM   10  C   UNK N   1      40.064  47.533  45.875  0.00  0.00     0.228 C 
HETATM   11  O   UNK N   1      40.463  47.765  44.743  0.00  0.00    -0.273 OA
ENDROOT
BRANCH   1  12
HETATM   12  C   UNK N   1      40.113  44.086  49.354  0.00  0.00     0.049 C 
HETATM   13  C   UNK N   1      40.660  44.425  50.540  0.00  0.00     0.120 A 
HETATM   14  C   UNK N   1      40.352  43.722  51.797  0.00  0.00     0.289 A 
HETATM   15  N   UNK N   1      41.670  45.387  50.851  0.00  0.00    -0.182 N 
HETATM   16  O   UNK N   1      39.545  42.813  51.935  0.00  0.00    -0.265 OA
HETATM   17  N   UNK N   1      41.104  44.226  52.798  0.00  0.00    -0.150 N 
HETATM   18  C   UNK N   1      41.923  45.239  52.239  0.00  0.00     0.683 A 
HETATM   19  C   UNK N   1      41.080  43.798  54.182  0.00  0.00     0.179 C 
HETATM   20  N   UNK N   1      42.793  45.920  52.897  0.00  0.00    -0.234 N 
HETATM   21  H   UNK N   1      42.942  45.766  53.904  0.00  0.00     0.174 HD
ATOM     22  HN  UNK N   1      43.346  46.625  52.411  1.00  0.00     0.174 HD
HETATM   23  C   UNK N   1      42.443  46.220  49.950  0.00  0.00     0.176 C 
ENDBRANCH   1  12
BRANCH  10  24
HETATM   24  C   UNK N   1      39.260  48.586  46.615  0.00  0.00     0.099 C 
HETATM   25  C   UNK N   1      38.939  49.821  45.779  0.00  0.00     0.014 C 
ENDBRANCH  10  24
TORSDOF 2
ENDMDL
MODEL 2
REMARK VINA RESULT:      -7.6      1.145      3.392
REMARK  2 active torsions:
REMARK  status: ('A' for Active; 'I' for Inactive)
REMARK    1  A    between atoms: C_10  and  C_11 
REMARK       I    between atoms: N_18  and  C_20 
REMARK    2  A    between atoms: C_20  and  C_22 
ROOT
HETATM    1  C   UNK N   1      40.711  44.459  47.980  0.00  0.00    -0.005 A 
HETATM    2  C   UNK N   1      40.396  45.664  47.374  0.00  0.00     0.003 A 
HETATM    3  C   UNK N   1      40.932  45.626  46.104  0.00  0.00     0.052 A 
HETATM    4  C   UNK N   1      40.762  46.700  45.215  0.00  0.00     0.031 A 
HETATM    5  C   UNK N   1      40.018  47.812  45.649  0.00  0.00     0.002 A 
HETATM    6  C   UNK N   1      39.458  47.838  46.943  0.00  0.00     0.001 A 
HETATM    7  C   UNK N   1      39.642  46.752  47.819  0.00  0.00     0.014 A 
HETATM    8  N   UNK N   1      41.564  44.439  45.900  0.00  0.00    -0.291 N 
HETATM    9  C   UNK N   1      41.404  43.723  47.040  0.00  0.00     0.112 A 
HETATM   10  C   UNK N   1      42.234  43.981  44.779  0.00  0.00     0.228 C 
HETATM   11  O   UNK N   1      42.328  44.685  43.785  0.00  0.00    -0.273 OA
ENDROOT
BRANCH   1  12
HETATM   12  C   UNK N   1      40.324  43.911  49.289  0.00  0.00     0.049 C 
HETATM   13  C   UNK N   1      40.735  44.294  50.516  0.00  0.00     0.120 A 
HETATM   14  C   UNK N   1      40.270  43.649  51.757  0.00  0.00     0.289 A 
HETATM   15  N   UNK N   1      41.719  45.256  50.902  0.00  0.00    -0.182 N 
HETATM   16  O   UNK N   1      39.437  42.758  51.837  0.00  0.00    -0.265 OA
HETATM   17  N   UNK N   1      40.910  44.187  52.817  0.00  0.00    -0.150 N 
HETATM   18  C   UNK N   1      41.806  45.164  52.316  0.00  0.00     0.683 A 
HETATM   19  C   UNK N   1      40.717  43.819  54.205  0.00  0.00     0.179 C 
HETATM   20  N   UNK N   1      42.606  45.861  53.042  0.00  0.00    -0.234 N 
HETATM   21  H   UNK N   1      42.634  45.750  54.065  0.00  0.00     0.174 HD
ATOM     22  HN  UNK N   1      43.224  46.538  52.595  1.00  0.00     0.174 HD
HETATM   23  C   UNK N   1      42.606  46.039  50.065  0.00  0.00     0.176 C 
ENDBRANCH   1  12
BRANCH  10  24
HETATM   24  C   UNK N   1      42.869  42.603  44.785  0.00  0.00     0.099 C 
HETATM   25  C   UNK N   1      44.368  42.612  44.498  0.00  0.00     0.014 C 
ENDBRANCH  10  24
TORSDOF 2
ENDMDL
MODEL 3
REMARK VINA RESULT:      -7.2      1.674      3.894
REMARK  2 active torsions:
REMARK  status: ('A' for Active; 'I' for Inactive)
REMARK    1  A    between atoms: C_10  and  C_11 
REMARK       I    between atoms: N_18  and  C_20 
REMARK    2  A    between atoms: C_20  and  C_22 
ROOT
HETATM    1  C   UNK N   1      41.828  45.794  48.356  0.00  0.00    -0.005 A 
HETATM    2  C   UNK N   1      41.152  46.717  47.574  0.00  0.00     0.003 A 
HETATM    3  C   UNK N   1      41.087  46.191  46.300  0.00  0.00     0.052 A 
HETATM    4  C   UNK N   1      40.433  46.880  45.267  0.00  0.00     0.031 A 
HETATM    5  C   UNK N   1      39.832  48.116  45.566  0.00  0.00     0.002 A 
HETATM    6  C   UNK N   1      39.887  48.640  46.875  0.00  0.00     0.001 A 
HETATM    7  C   UNK N   1      40.549  47.934  47.896  0.00  0.00     0.014 A 
HETATM    8  N   UNK N   1      41.695  44.975  46.267  0.00  0.00    -0.291 N 
HETATM    9  C   UNK N   1      42.124  44.729  47.529  0.00  0.00     0.112 A 
HETATM   10  C   UNK N   1      41.862  44.105  45.203  0.00  0.00     0.228 C 
HETATM   11  O   UNK N   1      41.439  44.396  44.094  0.00  0.00    -0.273 OA
ENDROOT
BRANCH   1  12
HETATM   12  C   UNK N   1      42.108  45.779  49.800  0.00  0.00     0.049 C 
HETATM   13  C   UNK N   1      41.539  45.017  50.759  0.00  0.00     0.120 A 
HETATM   14  C   UNK N   1      41.911  45.107  52.182  0.00  0.00     0.289 A 
HETATM   15  N   UNK N   1      40.454  44.090  50.680  0.00  0.00    -0.182 N 
HETATM   16  O   UNK N   1      42.791  45.813  52.653  0.00  0.00    -0.265 OA
HETATM   17  N   UNK N   1      41.124  44.288  52.911  0.00  0.00    -0.150 N 
HETATM   18  C   UNK N   1      40.221  43.664  52.014  0.00  0.00     0.683 A 
HETATM   19  C   UNK N   1      41.189  44.097  54.345  0.00  0.00     0.179 C 
HETATM   20  N   UNK N   1      39.300  42.837  52.362  0.00  0.00    -0.234 N 
HETATM   21  H   UNK N   1      39.168  42.567  53.347  0.00  0.00     0.174 HD
ATOM     22  HN  UNK N   1      38.688  42.441  51.649  1.00  0.00     0.174 HD
HETATM   23  C   UNK N   1      39.611  43.768  49.545  0.00  0.00     0.176 C 
ENDBRANCH   1  12
BRANCH  10  24
HETATM   24  C   UNK N   1      42.584  42.786  45.407  0.00  0.00     0.099 C 
HETATM   25  C   UNK N   1      43.835  42.627  44.548  0.00  0.00     0.014 C 
ENDBRANCH  10  24
TORSDOF 2
ENDMDL
MODEL 4
REMARK VINA RESULT:      -6.4     12.621     16.785
REMARK  2 active torsions:
REMARK  status: ('A' for Active; 'I' for Inactive)
REMARK    1  A    between atoms: C_10  and  C_11 
REMARK       I    between atoms: N_18  and  C_20 
REMARK    2  A    between atoms: C_20  and  C_22 
ROOT
HETATM    1  C   UNK N   1      30.332  54.136  42.127  0.00  0.00    -0.005 A 
HETATM    2  C   UNK N   1      31.267  54.236  43.143  0.00  0.00     0.003 A 
HETATM    3  C   UNK N   1      31.909  53.017  43.217  0.00  0.00     0.052 A 
HETATM    4  C   UNK N   1      32.944  52.801  44.141  0.00  0.00     0.031 A 
HETATM    5  C   UNK N   1      33.321  53.864  44.981  0.00  0.00     0.002 A 
HETATM    6  C   UNK N   1      32.673  55.114  44.887  0.00  0.00     0.001 A 
HETATM    7  C   UNK N   1      31.637  55.310  43.956  0.00  0.00     0.014 A 
HETATM    8  N   UNK N   1      31.405  52.168  42.282  0.00  0.00    -0.291 N 
HETATM    9  C   UNK N   1      30.460  52.865  41.605  0.00  0.00     0.112 A 
HETATM   10  C   UNK N   1      31.752  50.856  42.009  0.00  0.00     0.228 C 
HETATM   11  O   UNK N   1      32.622  50.298  42.660  0.00  0.00    -0.273 OA
ENDROOT
BRANCH   1  12
HETATM   12  C   UNK N   1      29.433  55.145  41.544  0.00  0.00     0.049 C 
HETATM   13  C   UNK N   1      29.344  55.550  40.260  0.00  0.00     0.120 A 
HETATM   14  C   UNK N   1      28.396  56.584  39.807  0.00  0.00     0.289 A 
HETATM   15  N   UNK N   1      30.139  55.204  39.124  0.00  0.00    -0.182 N 
HETATM   16  O   UNK N   1      27.557  57.144  40.499  0.00  0.00    -0.265 OA
HETATM   17  N   UNK N   1      28.589  56.837  38.496  0.00  0.00    -0.150 N 
HETATM   18  C   UNK N   1      29.656  56.011  38.061  0.00  0.00     0.683 A 
HETATM   19  C   UNK N   1      27.846  57.786  37.692  0.00  0.00     0.179 C 
HETATM   20  N   UNK N   1      30.136  56.006  36.868  0.00  0.00    -0.234 N 
HETATM   21  H   UNK N   1      29.752  56.618  36.135  0.00  0.00     0.174 HD
ATOM     22  HN  UNK N   1      30.912  55.383  36.645  1.00  0.00     0.174 HD
HETATM   23  C   UNK N   1      31.321  54.367  39.060  0.00  0.00     0.176 C 
ENDBRANCH   1  12
BRANCH  10  24
HETATM   24  C   UNK N   1      31.042  50.098  40.903  0.00  0.00     0.099 C 
HETATM   25  C   UNK N   1      31.114  48.581  41.049  0.00  0.00     0.014 C 
ENDBRANCH  10  24
TORSDOF 2
ENDMDL
MODEL 5
REMARK VINA RESULT:      -6.3     12.633     16.648
REMARK  2 active torsions:
REMARK  status: ('A' for Active; 'I' for Inactive)
REMARK    1  A    between atoms: C_10  and  C_11 
REMARK       I    between atoms: N_18  and  C_20 
REMARK    2  A    between atoms: C_20  and  C_22 
ROOT
HETATM    1  C   UNK N   1      30.228  53.886  41.904  0.00  0.00    -0.005 A 
HETATM    2  C   UNK N   1      30.668  52.589  41.698  0.00  0.00     0.003 A 
HETATM    3  C   UNK N   1      31.637  52.339  42.647  0.00  0.00     0.052 A 
HETATM    4  C   UNK N   1      32.269  51.088  42.723  0.00  0.00     0.031 A 
HETATM    5  C   UNK N   1      31.878  50.088  41.814  0.00  0.00     0.002 A 
HETATM    6  C   UNK N   1      30.874  50.344  40.857  0.00  0.00     0.001 A 
HETATM    7  C   UNK N   1      30.254  51.606  40.797  0.00  0.00     0.014 A 
HETATM    8  N   UNK N   1      31.811  53.434  43.435  0.00  0.00    -0.291 N 
HETATM    9  C   UNK N   1      30.931  54.365  42.991  0.00  0.00     0.112 A 
HETATM   10  C   UNK N   1      32.674  53.622  44.500  0.00  0.00     0.228 C 
HETATM   11  O   UNK N   1      33.433  52.730  44.846  0.00  0.00    -0.273 OA
ENDROOT
BRANCH   1  12
HETATM   12  C   UNK N   1      29.150  54.650  41.257  0.00  0.00     0.049 C 
HETATM   13  C   UNK N   1      29.074  55.082  39.981  0.00  0.00     0.120 A 
HETATM   14  C   UNK N   1      27.930  55.850  39.459  0.00  0.00     0.289 A 
HETATM   15  N   UNK N   1      30.034  55.016  38.924  0.00  0.00    -0.182 N 
HETATM   16  O   UNK N   1      26.912  56.133  40.075  0.00  0.00    -0.265 OA
HETATM   17  N   UNK N   1      28.168  56.211  38.181  0.00  0.00    -0.150 N 
HETATM   18  C   UNK N   1      29.452  55.720  37.838  0.00  0.00     0.683 A 
HETATM   19  C   UNK N   1      27.276  56.971  37.329  0.00  0.00     0.179 C 
HETATM   20  N   UNK N   1      30.024  55.902  36.700  0.00  0.00    -0.234 N 
HETATM   21  H   UNK N   1      29.560  56.428  35.946  0.00  0.00     0.174 HD
ATOM     22  HN  UNK N   1      30.956  55.518  36.542  1.00  0.00     0.174 HD
HETATM   23  C   UNK N   1      31.398  54.525  38.962  0.00  0.00     0.176 C 
ENDBRANCH   1  12
BRANCH  10  24
HETATM   24  C   UNK N   1      32.691  54.948  45.239  0.00  0.00     0.099 C 
HETATM   25  C   UNK N   1      33.947  55.777  44.992  0.00  0.00     0.014 C 
ENDBRANCH  10  24
TORSDOF 2
ENDMDL
MODEL 6
REMARK VINA RESULT:      -6.3      2.940      6.967
REMARK  2 active torsions:
REMARK  status: ('A' for Active; 'I' for Inactive)
REMARK    1  A    between atoms: C_10  and  C_11 
REMARK       I    between atoms: N_18  and  C_20 
REMARK    2  A    between atoms: C_20  and  C_22 
ROOT
HETATM    1  C   UNK N   1      41.900  45.640  46.659  0.00  0.00    -0.005 A 
HETATM    2  C   UNK N   1      41.436  45.209  47.890  0.00  0.00     0.003 A 
HETATM    3  C   UNK N   1      41.606  43.841  47.926  0.00  0.00     0.052 A 
HETATM    4  C   UNK N   1      41.254  43.098  49.065  0.00  0.00     0.031 A 
HETATM    5  C   UNK N   1      40.736  43.788  50.176  0.00  0.00     0.002 A 
HETATM    6  C   UNK N   1      40.580  45.190  50.139  0.00  0.00     0.001 A 
HETATM    7  C   UNK N   1      40.938  45.915  48.988  0.00  0.00     0.014 A 
HETATM    8  N   UNK N   1      42.161  43.410  46.762  0.00  0.00    -0.291 N 
HETATM    9  C   UNK N   1      42.359  44.516  46.003  0.00  0.00     0.112 A 
HETATM   10  C   UNK N   1      42.499  42.125  46.372  0.00  0.00     0.228 C 
HETATM   11  O   UNK N   1      42.296  41.179  47.118  0.00  0.00    -0.273 OA
ENDROOT
BRANCH   1  12
HETATM   12  C   UNK N   1      42.051  46.996  46.108  0.00  0.00     0.049 C 
HETATM   13  C   UNK N   1      41.091  47.835  45.664  0.00  0.00     0.120 A 
HETATM   14  C   UNK N   1      41.382  49.175  45.126  0.00  0.00     0.289 A 
HETATM   15  N   UNK N   1      39.686  47.630  45.504  0.00  0.00    -0.182 N 
HETATM   16  O   UNK N   1      42.482  49.706  45.071  0.00  0.00    -0.265 OA
HETATM   17  N   UNK N   1      40.241  49.748  44.687  0.00  0.00    -0.150 N 
HETATM   18  C   UNK N   1      39.195  48.817  44.900  0.00  0.00     0.683 A 
HETATM   19  C   UNK N   1      40.121  51.066  44.098  0.00  0.00     0.179 C 
HETATM   20  N   UNK N   1      37.966  49.011  44.574  0.00  0.00    -0.234 N 
HETATM   21  H   UNK N   1      37.664  49.890  44.130  0.00  0.00     0.174 HD
ATOM     22  HN  UNK N   1      37.279  48.281  44.757  1.00  0.00     0.174 HD
HETATM   23  C   UNK N   1      38.912  46.421  45.711  0.00  0.00     0.176 C 
ENDBRANCH   1  12
BRANCH  10  24
HETATM   24  C   UNK N   1      43.115  41.884  45.006  0.00  0.00     0.099 C 
HETATM   25  C   UNK N   1      44.637  41.978  44.989  0.00  0.00     0.014 C 
ENDBRANCH  10  24
TORSDOF 2
ENDMDL
MODEL 7
REMARK VINA RESULT:      -6.3     13.459     17.602
REMARK  2 active torsions:
REMARK  status: ('A' for Active; 'I' for Inactive)
REMARK    1  A    between atoms: C_10  and  C_11 
REMARK       I    between atoms: N_18  and  C_20 
REMARK    2  A    between atoms: C_20  and  C_22 
ROOT
HETATM    1  C   UNK N   1      30.398  55.535  41.720  0.00  0.00    -0.005 A 
HETATM    2  C   UNK N   1      30.367  54.286  41.122  0.00  0.00     0.003 A 
HETATM    3  C   UNK N   1      30.990  53.412  41.989  0.00  0.00     0.052 A 
HETATM    4  C   UNK N   1      31.099  52.046  41.683  0.00  0.00     0.031 A 
HETATM    5  C   UNK N   1      30.543  51.588  40.475  0.00  0.00     0.002 A 
HETATM    6  C   UNK N   1      29.891  52.483  39.601  0.00  0.00     0.001 A 
HETATM    7  C   UNK N   1      29.794  53.849  39.926  0.00  0.00     0.014 A 
HETATM    8  N   UNK N   1      31.404  54.075  43.102  0.00  0.00    -0.291 N 
HETATM    9  C   UNK N   1      31.018  55.365  42.941  0.00  0.00     0.112 A 
HETATM   10  C   UNK N   1      32.068  53.593  44.216  0.00  0.00     0.228 C 
HETATM   11  O   UNK N   1      32.376  52.412  44.290  0.00  0.00    -0.273 OA
ENDROOT
BRANCH   1  12
HETATM   12  C   UNK N   1      29.807  56.816  41.303  0.00  0.00     0.049 C 
HETATM   13  C   UNK N   1      28.534  57.242  41.447  0.00  0.00     0.120 A 
HETATM   14  C   UNK N   1      28.069  58.557  40.973  0.00  0.00     0.289 A 
HETATM   15  N   UNK N   1      27.382  56.559  41.945  0.00  0.00    -0.182 N 
HETATM   16  O   UNK N   1      28.761  59.425  40.463  0.00  0.00    -0.265 OA
HETATM   17  N   UNK N   1      26.740  58.672  41.181  0.00  0.00    -0.150 N 
HETATM   18  C   UNK N   1      26.299  57.458  41.765  0.00  0.00     0.683 A 
HETATM   19  C   UNK N   1      25.922  59.822  40.853  0.00  0.00     0.179 C 
HETATM   20  N   UNK N   1      25.078  57.198  42.075  0.00  0.00    -0.234 N 
HETATM   21  H   UNK N   1      24.328  57.885  41.916  0.00  0.00     0.174 HD
ATOM     22  HN  UNK N   1      24.850  56.292  42.485  1.00  0.00     0.174 HD
HETATM   23  C   UNK N   1      27.254  55.178  42.369  0.00  0.00     0.176 C 
ENDBRANCH   1  12
BRANCH  10  24
HETATM   24  C   UNK N   1      32.432  54.533  45.349  0.00  0.00     0.099 C 
HETATM   25  C   UNK N   1      33.775  55.234  45.166  0.00  0.00     0.014 C 
ENDBRANCH  10  24
TORSDOF 2
ENDMDL
MODEL 8
REMARK VINA RESULT:      -6.1     12.740     16.859
REMARK  2 active torsions:
REMARK  status: ('A' for Active; 'I' for Inactive)
REMARK    1  A    between atoms: C_10  and  C_11 
REMARK       I    between atoms: N_18  and  C_20 
REMARK    2  A    between atoms: C_20  and  C_22 
ROOT
HETATM    1  C   UNK N   1      30.987  54.628  41.927  0.00  0.00    -0.005 A 
HETATM    2  C   UNK N   1      31.644  54.515  43.140  0.00  0.00     0.003 A 
HETATM    3  C   UNK N   1      31.907  53.174  43.330  0.00  0.00     0.052 A 
HETATM    4  C   UNK N   1      32.596  52.727  44.469  0.00  0.00     0.031 A 
HETATM    5  C   UNK N   1      33.027  53.684  45.406  0.00  0.00     0.002 A 
HETATM    6  C   UNK N   1      32.770  55.056  45.197  0.00  0.00     0.001 A 
HETATM    7  C   UNK N   1      32.076  55.483  44.050  0.00  0.00     0.014 A 
HETATM    8  N   UNK N   1      31.437  52.454  42.277  0.00  0.00    -0.291 N 
HETATM    9  C   UNK N   1      30.899  53.350  41.414  0.00  0.00     0.112 A 
HETATM   10  C   UNK N   1      31.483  51.089  42.055  0.00  0.00     0.228 C 
HETATM   11  O   UNK N   1      31.995  50.345  42.880  0.00  0.00    -0.273 OA
ENDROOT
BRANCH   1  12
HETATM   12  C   UNK N   1      30.550  55.816  41.176  0.00  0.00     0.049 C 
HETATM   13  C   UNK N   1      29.388  56.495  41.278  0.00  0.00     0.120 A 
HETATM   14  C   UNK N   1      29.072  57.675  40.454  0.00  0.00     0.289 A 
HETATM   15  N   UNK N   1      28.220  56.217  42.053  0.00  0.00    -0.182 N 
HETATM   16  O   UNK N   1      29.818  58.208  39.644  0.00  0.00    -0.265 OA
HETATM   17  N   UNK N   1      27.816  58.092  40.717  0.00  0.00    -0.150 N 
HETATM   18  C   UNK N   1      27.274  57.209  41.685  0.00  0.00     0.683 A 
HETATM   19  C   UNK N   1      27.149  59.225  40.110  0.00  0.00     0.179 C 
HETATM   20  N   UNK N   1      26.079  57.284  42.154  0.00  0.00    -0.234 N 
HETATM   21  H   UNK N   1      25.429  58.021  41.847  0.00  0.00     0.174 HD
ATOM     22  HN  UNK N   1      25.770  56.600  42.844  1.00  0.00     0.174 HD
HETATM   23  C   UNK N   1      27.937  55.072  42.897  0.00  0.00     0.176 C 
ENDBRANCH   1  12
BRANCH  10  24
HETATM   24  C   UNK N   1      30.885  50.504  40.789  0.00  0.00     0.099 C 
HETATM   25  C   UNK N   1      30.864  48.979  40.762  0.00  0.00     0.014 C 
ENDBRANCH  10  24
TORSDOF 2
ENDMDL
MODEL 9
REMARK VINA RESULT:      -6.1     12.996     17.243
REMARK  2 active torsions:
REMARK  status: ('A' for Active; 'I' for Inactive)
REMARK    1  A    between atoms: C_10  and  C_11 
REMARK       I    between atoms: N_18  and  C_20 
REMARK    2  A    between atoms: C_20  and  C_22 
ROOT
HETATM    1  C   UNK N   1      30.560  54.111  41.298  0.00  0.00    -0.005 A 
HETATM    2  C   UNK N   1      31.057  54.190  42.588  0.00  0.00     0.003 A 
HETATM    3  C   UNK N   1      31.465  52.919  42.938  0.00  0.00     0.052 A 
HETATM    4  C   UNK N   1      32.048  52.667  44.190  0.00  0.00     0.031 A 
HETATM    5  C   UNK N   1      32.218  53.746  45.076  0.00  0.00     0.002 A 
HETATM    6  C   UNK N   1      31.814  55.046  44.705  0.00  0.00     0.001 A 
HETATM    7  C   UNK N   1      31.230  55.278  43.446  0.00  0.00     0.014 A 
HETATM    8  N   UNK N   1      31.241  52.058  41.909  0.00  0.00    -0.291 N 
HETATM    9  C   UNK N   1      30.711  52.797  40.904  0.00  0.00     0.112 A 
HETATM   10  C   UNK N   1      31.497  50.701  41.828  0.00  0.00     0.228 C 
HETATM   11  O   UNK N   1      31.985  50.106  42.777  0.00  0.00    -0.273 OA
ENDROOT
BRANCH   1  12
HETATM   12  C   UNK N   1      30.076  55.161  40.388  0.00  0.00     0.049 C 
HETATM   13  C   UNK N   1      28.802  55.479  40.071  0.00  0.00     0.120 A 
HETATM   14  C   UNK N   1      28.454  56.559  39.132  0.00  0.00     0.289 A 
HETATM   15  N   UNK N   1      27.574  54.846  40.436  0.00  0.00    -0.182 N 
HETATM   16  O   UNK N   1      29.240  57.319  38.585  0.00  0.00    -0.265 OA
HETATM   17  N   UNK N   1      27.117  56.591  38.950  0.00  0.00    -0.150 N 
HETATM   18  C   UNK N   1      26.561  55.547  39.730  0.00  0.00     0.683 A 
HETATM   19  C   UNK N   1      26.393  57.517  38.103  0.00  0.00     0.179 C 
HETATM   20  N   UNK N   1      25.309  55.258  39.780  0.00  0.00    -0.234 N 
HETATM   21  H   UNK N   1      24.615  55.795  39.241  0.00  0.00     0.174 HD
ATOM     22  HN  UNK N   1      24.998  54.482  40.364  1.00  0.00     0.174 HD
HETATM   23  C   UNK N   1      27.367  53.629  41.197  0.00  0.00     0.176 C 
ENDBRANCH   1  12
BRANCH  10  24
HETATM   24  C   UNK N   1      31.157  49.939  40.561  0.00  0.00     0.099 C 
HETATM   25  C   UNK N   1      31.002  48.435  40.766  0.00  0.00     0.014 C 
ENDBRANCH  10  24
TORSDOF 2
ENDMDL
