MODEL 1
REMARK VINA RESULT:      -7.5      0.000      0.000
REMARK  7 active torsions:
REMARK  status: ('A' for Active; 'I' for Inactive)
REMARK    1  A    between atoms: C_5  and  N_6 
REMARK       I    between atoms: N_6  and  C_7 
REMARK    2  A    between atoms: C_10  and  C_11 
REMARK    3  A    between atoms: C_11  and  C_12 
REMARK    4  A    between atoms: C_15  and  O_16 
REMARK    5  A    between atoms: C_20  and  C_23 
REMARK    6  A    between atoms: C_23  and  C_24 
REMARK    7  A    between atoms: C_27  and  O_28 
ROOT
HETATM    1  N   UNK N   1      40.278  48.731  45.774  0.00  0.00    -0.171 N 
HETATM    2  C   UNK N   1      40.593  47.430  46.262  0.00  0.00     0.686 A 
HETATM    3  N   UNK N   1      40.067  46.282  45.783  0.00  0.00    -0.193 N 
ATOM      4  HN  UNK N   1      39.375  46.176  45.041  1.00  0.00     0.184 HD
HETATM    5  C   UNK N   1      40.659  45.301  46.505  0.00  0.00     0.054 A 
HETATM    6  C   UNK N   1      41.531  45.873  47.417  0.00  0.00     0.056 A 
HETATM    7  N   UNK N   1      41.484  47.212  47.253  0.00  0.00    -0.189 N 
HETATM    8  C   UNK N   1      42.233  48.244  47.973  0.00  0.00     0.175 C 
HETATM    9  H   UNK N   1      40.717  49.543  46.229  0.00  0.00     0.186 HD
ENDROOT
BRANCH   1  10
HETATM   10  C   UNK N   1      39.424  48.993  44.667  0.00  0.00     0.194 A 
HETATM   11  N   UNK N   1      38.376  48.317  44.340  0.00  0.00    -0.289 N 
HETATM   12  C   UNK N   1      37.870  48.895  43.215  0.00  0.00     0.330 A 
ATOM     13  HN  UNK N   1      37.998  47.505  44.830  1.00  0.00     0.172 HD
HETATM   14  O   UNK N   1      36.871  48.497  42.639  0.00  0.00    -0.246 OA
HETATM   15  N   UNK N   1      38.606  49.957  42.815  0.00  0.00    -0.268 N 
HETATM   16  C   UNK N   1      39.605  50.064  43.698  0.00  0.00     0.296 A 
HETATM   17  C   UNK N   1      38.364  50.805  41.665  0.00  0.00     0.165 C 
HETATM   18  O   UNK N   1      40.487  50.908  43.671  0.00  0.00    -0.264 OA
ENDBRANCH   1  10
BRANCH   5  19
HETATM   19  C   UNK N   1      40.458  43.836  46.220  0.00  0.00     0.098 C 
BRANCH  19  20
HETATM   20  C   UNK N   1      41.762  43.189  45.803  0.00  0.00    -0.052 A 
HETATM   21  C   UNK N   1      42.318  42.118  46.526  0.00  0.00     0.010 A 
HETATM   22  C   UNK N   1      43.506  41.510  46.088  0.00  0.00     0.037 A 
HETATM   23  C   UNK N   1      44.157  41.975  44.923  0.00  0.00     0.068 A 
HETATM   24  C   UNK N   1      43.605  43.049  44.221  0.00  0.00     0.037 A 
HETATM   25  C   UNK N   1      42.420  43.644  44.647  0.00  0.00     0.010 A 
BRANCH  23  26
HETATM   26  O   UNK N   1      45.301  41.417  44.446  0.00  0.00    -0.356 OA
HETATM   27  C   UNK N   1      45.448  40.810  43.216  0.00  0.00     0.210 C 
ENDBRANCH  23  26
ENDBRANCH  19  20
ENDBRANCH   5  19
BRANCH   6  28
HETATM   28  C   UNK N   1      42.404  45.159  48.420  0.00  0.00     0.098 C 
BRANCH  28  29
HETATM   29  C   UNK N   1      41.727  44.876  49.743  0.00  0.00    -0.052 A 
HETATM   30  C   UNK N   1      42.111  45.521  50.935  0.00  0.00     0.010 A 
HETATM   31  C   UNK N   1      41.502  45.191  52.144  0.00  0.00     0.037 A 
HETATM   32  C   UNK N   1      40.486  44.216  52.186  0.00  0.00     0.068 A 
HETATM   33  C   UNK N   1      40.092  43.588  50.999  0.00  0.00     0.037 A 
HETATM   34  C   UNK N   1      40.712  43.909  49.788  0.00  0.00     0.010 A 
BRANCH  32  35
HETATM   35  O   UNK N   1      39.877  43.857  53.347  0.00  0.00    -0.356 OA
HETATM   36  C   UNK N   1      39.333  42.614  53.601  0.00  0.00     0.210 C 
ENDBRANCH  32  35
ENDBRANCH  28  29
ENDBRANCH   6  28
TORSDOF 7
ENDMDL
MODEL 2
REMARK VINA RESULT:      -6.3     14.236     16.551
REMARK  7 active torsions:
REMARK  status: ('A' for Active; 'I' for Inactive)
REMARK    1  A    between atoms: C_5  and  N_6 
REMARK       I    between atoms: N_6  and  C_7 
REMARK    2  A    between atoms: C_10  and  C_11 
REMARK    3  A    between atoms: C_11  and  C_12 
REMARK    4  A    between atoms: C_15  and  O_16 
REMARK    5  A    between atoms: C_20  and  C_23 
REMARK    6  A    between atoms: C_23  and  C_24 
REMARK    7  A    between atoms: C_27  and  O_28 
ROOT
HETATM    1  N   UNK N   1      29.192  41.271  55.833  0.00  0.00    -0.171 N 
HETATM    2  C   UNK N   1      29.762  41.994  56.920  0.00  0.00     0.686 A 
HETATM    3  N   UNK N   1      30.172  43.279  56.856  0.00  0.00    -0.193 N 
ATOM      4  HN  UNK N   1      30.155  43.899  56.046  1.00  0.00     0.184 HD
HETATM    5  C   UNK N   1      30.611  43.565  58.106  0.00  0.00     0.054 A 
HETATM    6  C   UNK N   1      30.466  42.443  58.905  0.00  0.00     0.056 A 
HETATM    7  N   UNK N   1      29.928  41.462  58.150  0.00  0.00    -0.189 N 
HETATM    8  C   UNK N   1      29.575  40.098  58.548  0.00  0.00     0.175 C 
HETATM    9  H   UNK N   1      28.936  40.285  55.981  0.00  0.00     0.186 HD
ENDROOT
BRANCH   1  10
HETATM   10  C   UNK N   1      28.907  41.826  54.555  0.00  0.00     0.194 A 
HETATM   11  N   UNK N   1      29.671  41.771  53.517  0.00  0.00    -0.289 N 
HETATM   12  C   UNK N   1      29.027  42.440  52.520  0.00  0.00     0.330 A 
ATOM     13  HN  UNK N   1      30.581  41.316  53.455  1.00  0.00     0.172 HD
HETATM   14  O   UNK N   1      29.479  42.578  51.394  0.00  0.00    -0.246 OA
HETATM   15  N   UNK N   1      27.834  42.931  52.925  0.00  0.00    -0.268 N 
HETATM   16  C   UNK N   1      27.706  42.573  54.207  0.00  0.00     0.296 A 
HETATM   17  C   UNK N   1      26.886  43.690  52.134  0.00  0.00     0.165 C 
HETATM   18  O   UNK N   1      26.755  42.837  54.926  0.00  0.00    -0.264 OA
ENDBRANCH   1  10
BRANCH   5  19
HETATM   19  C   UNK N   1      31.049  44.943  58.526  0.00  0.00     0.098 C 
BRANCH  19  20
HETATM   20  C   UNK N   1      29.989  45.969  58.182  0.00  0.00    -0.052 A 
HETATM   21  C   UNK N   1      28.623  45.719  58.403  0.00  0.00     0.010 A 
HETATM   22  C   UNK N   1      27.668  46.709  58.115  0.00  0.00     0.037 A 
HETATM   23  C   UNK N   1      28.072  47.958  57.593  0.00  0.00     0.068 A 
HETATM   24  C   UNK N   1      29.429  48.191  57.364  0.00  0.00     0.037 A 
HETATM   25  C   UNK N   1      30.379  47.215  57.661  0.00  0.00     0.010 A 
BRANCH  23  26
HETATM   26  O   UNK N   1      27.194  48.956  57.309  0.00  0.00    -0.356 OA
HETATM   27  C   UNK N   1      27.492  50.126  56.642  0.00  0.00     0.210 C 
ENDBRANCH  23  26
ENDBRANCH  19  20
ENDBRANCH   5  19
BRANCH   6  28
HETATM   28  C   UNK N   1      30.821  42.310  60.365  0.00  0.00     0.098 C 
BRANCH  28  29
HETATM   29  C   UNK N   1      32.218  42.778  60.710  0.00  0.00    -0.052 A 
HETATM   30  C   UNK N   1      32.489  43.550  61.857  0.00  0.00     0.010 A 
HETATM   31  C   UNK N   1      33.779  44.011  62.110  0.00  0.00     0.037 A 
HETATM   32  C   UNK N   1      34.832  43.699  61.226  0.00  0.00     0.068 A 
HETATM   33  C   UNK N   1      34.566  42.916  60.096  0.00  0.00     0.037 A 
HETATM   34  C   UNK N   1      33.269  42.466  59.835  0.00  0.00     0.010 A 
BRANCH  32  35
HETATM   35  O   UNK N   1      36.101  44.140  61.430  0.00  0.00    -0.356 OA
HETATM   36  C   UNK N   1      36.449  45.186  62.260  0.00  0.00     0.210 C 
ENDBRANCH  32  35
ENDBRANCH  28  29
ENDBRANCH   6  28
TORSDOF 7
ENDMDL
MODEL 3
REMARK VINA RESULT:      -6.1     14.739     16.449
REMARK  7 active torsions:
REMARK  status: ('A' for Active; 'I' for Inactive)
REMARK    1  A    between atoms: C_5  and  N_6 
REMARK       I    between atoms: N_6  and  C_7 
REMARK    2  A    between atoms: C_10  and  C_11 
REMARK    3  A    between atoms: C_11  and  C_12 
REMARK    4  A    between atoms: C_15  and  O_16 
REMARK    5  A    between atoms: C_20  and  C_23 
REMARK    6  A    between atoms: C_23  and  C_24 
REMARK    7  A    between atoms: C_27  and  O_28 
ROOT
HETATM    1  N   UNK N   1      28.251  41.632  54.516  0.00  0.00    -0.171 N 
HETATM    2  C   UNK N   1      28.426  42.105  55.848  0.00  0.00     0.686 A 
HETATM    3  N   UNK N   1      28.001  43.305  56.299  0.00  0.00    -0.193 N 
ATOM      4  HN  UNK N   1      27.526  44.036  55.770  1.00  0.00     0.184 HD
HETATM    5  C   UNK N   1      28.345  43.324  57.610  0.00  0.00     0.054 A 
HETATM    6  C   UNK N   1      28.980  42.135  57.929  0.00  0.00     0.056 A 
HETATM    7  N   UNK N   1      29.022  41.375  56.815  0.00  0.00    -0.189 N 
HETATM    8  C   UNK N   1      29.581  40.031  56.652  0.00  0.00     0.175 C 
HETATM    9  H   UNK N   1      28.637  40.710  54.269  0.00  0.00     0.186 HD
ENDROOT
BRANCH   1  10
HETATM   10  C   UNK N   1      27.540  42.327  53.499  0.00  0.00     0.194 A 
HETATM   11  N   UNK N   1      27.028  43.506  53.602  0.00  0.00    -0.289 N 
HETATM   12  C   UNK N   1      26.426  43.779  52.411  0.00  0.00     0.330 A 
ATOM     13  HN  UNK N   1      27.065  44.116  54.419  1.00  0.00     0.172 HD
HETATM   14  O   UNK N   1      25.840  44.822  52.171  0.00  0.00    -0.246 OA
HETATM   15  N   UNK N   1      26.554  42.759  51.532  0.00  0.00    -0.268 N 
HETATM   16  C   UNK N   1      27.250  41.811  52.169  0.00  0.00     0.296 A 
HETATM   17  C   UNK N   1      26.042  42.703  50.177  0.00  0.00     0.165 C 
HETATM   18  O   UNK N   1      27.566  40.729  51.700  0.00  0.00    -0.264 OA
ENDBRANCH   1  10
BRANCH   5  19
HETATM   19  C   UNK N   1      27.949  44.436  58.545  0.00  0.00     0.098 C 
BRANCH  19  20
HETATM   20  C   UNK N   1      28.682  45.714  58.197  0.00  0.00    -0.052 A 
HETATM   21  C   UNK N   1      30.076  45.738  58.017  0.00  0.00     0.010 A 
HETATM   22  C   UNK N   1      30.722  46.932  57.650  0.00  0.00     0.037 A 
HETATM   23  C   UNK N   1      29.976  48.118  57.470  0.00  0.00     0.068 A 
HETATM   24  C   UNK N   1      28.594  48.087  57.666  0.00  0.00     0.037 A 
HETATM   25  C   UNK N   1      27.951  46.901  58.017  0.00  0.00     0.010 A 
BRANCH  23  26
HETATM   26  O   UNK N   1      30.545  49.297  57.103  0.00  0.00    -0.356 OA
HETATM   27  C   UNK N   1      31.035  49.599  55.850  0.00  0.00     0.210 C 
ENDBRANCH  23  26
ENDBRANCH  19  20
ENDBRANCH   5  19
BRANCH   6  28
HETATM   28  C   UNK N   1      29.526  41.724  59.274  0.00  0.00     0.098 C 
BRANCH  28  29
HETATM   29  C   UNK N   1      30.937  42.199  59.543  0.00  0.00    -0.052 A 
HETATM   30  C   UNK N   1      31.815  42.572  58.506  0.00  0.00     0.010 A 
HETATM   31  C   UNK N   1      33.126  42.949  58.791  0.00  0.00     0.037 A 
HETATM   32  C   UNK N   1      33.586  42.972  60.123  0.00  0.00     0.068 A 
HETATM   33  C   UNK N   1      32.709  42.618  61.155  0.00  0.00     0.037 A 
HETATM   34  C   UNK N   1      31.398  42.227  60.868  0.00  0.00     0.010 A 
BRANCH  32  35
HETATM   35  O   UNK N   1      34.861  43.321  60.441  0.00  0.00    -0.356 OA
HETATM   36  C   UNK N   1      35.222  44.072  61.541  0.00  0.00     0.210 C 
ENDBRANCH  32  35
ENDBRANCH  28  29
ENDBRANCH   6  28
TORSDOF 7
ENDMDL
MODEL 4
REMARK VINA RESULT:      -6.0     15.185     17.221
REMARK  7 active torsions:
REMARK  status: ('A' for Active; 'I' for Inactive)
REMARK    1  A    between atoms: C_5  and  N_6 
REMARK       I    between atoms: N_6  and  C_7 
REMARK    2  A    between atoms: C_10  and  C_11 
REMARK    3  A    between atoms: C_11  and  C_12 
REMARK    4  A    between atoms: C_15  and  O_16 
REMARK    5  A    between atoms: C_20  and  C_23 
REMARK    6  A    between atoms: C_23  and  C_24 
REMARK    7  A    between atoms: C_27  and  O_28 
ROOT
HETATM    1  N   UNK N   1      48.851  55.815  56.384  0.00  0.00    -0.171 N 
HETATM    2  C   UNK N   1      48.848  55.417  57.752  0.00  0.00     0.686 A 
HETATM    3  N   UNK N   1      49.757  54.592  58.314  0.00  0.00    -0.193 N 
ATOM      4  HN  UNK N   1      50.544  54.130  57.858  1.00  0.00     0.184 HD
HETATM    5  C   UNK N   1      49.395  54.513  59.617  0.00  0.00     0.054 A 
HETATM    6  C   UNK N   1      48.265  55.288  59.821  0.00  0.00     0.056 A 
HETATM    7  N   UNK N   1      47.932  55.855  58.643  0.00  0.00    -0.189 N 
HETATM    8  C   UNK N   1      46.822  56.765  58.352  0.00  0.00     0.175 C 
HETATM    9  H   UNK N   1      48.095  56.428  56.051  0.00  0.00     0.186 HD
ENDROOT
BRANCH   1  10
HETATM   10  C   UNK N   1      49.855  55.458  55.442  0.00  0.00     0.194 A 
HETATM   11  N   UNK N   1      49.790  54.489  54.593  0.00  0.00    -0.289 N 
HETATM   12  C   UNK N   1      50.964  54.491  53.903  0.00  0.00     0.330 A 
ATOM     13  HN  UNK N   1      49.009  53.845  54.465  1.00  0.00     0.172 HD
HETATM   14  O   UNK N   1      51.231  53.694  53.018  0.00  0.00    -0.246 OA
HETATM   15  N   UNK N   1      51.795  55.475  54.315  0.00  0.00    -0.268 N 
HETATM   16  C   UNK N   1      51.144  56.119  55.291  0.00  0.00     0.296 A 
HETATM   17  C   UNK N   1      53.118  55.773  53.807  0.00  0.00     0.165 C 
HETATM   18  O   UNK N   1      51.573  57.075  55.918  0.00  0.00    -0.264 OA
ENDBRANCH   1  10
BRANCH   5  19
HETATM   19  C   UNK N   1      50.213  53.789  60.654  0.00  0.00     0.098 C 
BRANCH  19  20
HETATM   20  C   UNK N   1      49.520  52.514  61.086  0.00  0.00    -0.052 A 
HETATM   21  C   UNK N   1      49.307  52.215  62.444  0.00  0.00     0.010 A 
HETATM   22  C   UNK N   1      48.622  51.045  62.811  0.00  0.00     0.037 A 
HETATM   23  C   UNK N   1      48.150  50.156  61.820  0.00  0.00     0.068 A 
HETATM   24  C   UNK N   1      48.380  50.454  60.476  0.00  0.00     0.037 A 
HETATM   25  C   UNK N   1      49.048  51.620  60.110  0.00  0.00     0.010 A 
BRANCH  23  26
HETATM   26  O   UNK N   1      47.469  49.016  62.117  0.00  0.00    -0.356 OA
HETATM   27  C   UNK N   1      46.613  48.845  63.183  0.00  0.00     0.210 C 
ENDBRANCH  23  26
ENDBRANCH  19  20
ENDBRANCH   5  19
BRANCH   6  28
HETATM   28  C   UNK N   1      47.522  55.496  61.117  0.00  0.00     0.098 C 
BRANCH  28  29
HETATM   29  C   UNK N   1      46.569  54.377  61.475  0.00  0.00    -0.052 A 
HETATM   30  C   UNK N   1      46.200  54.101  62.806  0.00  0.00     0.010 A 
HETATM   31  C   UNK N   1      45.365  53.024  63.099  0.00  0.00     0.037 A 
HETATM   32  C   UNK N   1      44.870  52.205  62.064  0.00  0.00     0.068 A 
HETATM   33  C   UNK N   1      45.223  52.490  60.740  0.00  0.00     0.037 A 
HETATM   34  C   UNK N   1      46.072  53.561  60.447  0.00  0.00     0.010 A 
BRANCH  32  35
HETATM   35  O   UNK N   1      44.065  51.138  62.310  0.00  0.00    -0.356 OA
HETATM   36  C   UNK N   1      43.608  50.257  61.351  0.00  0.00     0.210 C 
ENDBRANCH  32  35
ENDBRANCH  28  29
ENDBRANCH   6  28
TORSDOF 7
ENDMDL
MODEL 5
REMARK VINA RESULT:      -6.0     14.759     17.911
REMARK  7 active torsions:
REMARK  status: ('A' for Active; 'I' for Inactive)
REMARK    1  A    between atoms: C_5  and  N_6 
REMARK       I    between atoms: N_6  and  C_7 
REMARK    2  A    between atoms: C_10  and  C_11 
REMARK    3  A    between atoms: C_11  and  C_12 
REMARK    4  A    between atoms: C_15  and  O_16 
REMARK    5  A    between atoms: C_20  and  C_23 
REMARK    6  A    between atoms: C_23  and  C_24 
REMARK    7  A    between atoms: C_27  and  O_28 
ROOT
HETATM    1  N   UNK N   1      30.261  41.793  55.342  0.00  0.00    -0.171 N 
HETATM    2  C   UNK N   1      29.869  42.514  56.506  0.00  0.00     0.686 A 
HETATM    3  N   UNK N   1      28.627  42.501  57.036  0.00  0.00    -0.193 N 
ATOM      4  HN  UNK N   1      27.806  42.008  56.686  1.00  0.00     0.184 HD
HETATM    5  C   UNK N   1      28.710  43.289  58.135  0.00  0.00     0.054 A 
HETATM    6  C   UNK N   1      30.003  43.772  58.249  0.00  0.00     0.056 A 
HETATM    7  N   UNK N   1      30.724  43.277  57.222  0.00  0.00    -0.189 N 
HETATM    8  C   UNK N   1      32.140  43.490  56.918  0.00  0.00     0.175 C 
HETATM    9  H   UNK N   1      31.229  41.893  55.008  0.00  0.00     0.186 HD
ENDROOT
BRANCH   1  10
HETATM   10  C   UNK N   1      29.418  40.901  54.623  0.00  0.00     0.194 A 
HETATM   11  N   UNK N   1      28.741  41.186  53.563  0.00  0.00    -0.289 N 
HETATM   12  C   UNK N   1      28.063  40.057  53.215  0.00  0.00     0.330 A 
ATOM     13  HN  UNK N   1      28.717  42.084  53.080  1.00  0.00     0.172 HD
HETATM   14  O   UNK N   1      27.320  39.984  52.249  0.00  0.00    -0.246 OA
HETATM   15  N   UNK N   1      28.309  39.034  54.064  0.00  0.00    -0.268 N 
HETATM   16  C   UNK N   1      29.160  39.513  54.978  0.00  0.00     0.296 A 
HETATM   17  C   UNK N   1      27.763  37.693  53.999  0.00  0.00     0.165 C 
HETATM   18  O   UNK N   1      29.617  38.884  55.919  0.00  0.00    -0.264 OA
ENDBRANCH   1  10
BRANCH   5  19
HETATM   19  C   UNK N   1      27.575  43.460  59.110  0.00  0.00     0.098 C 
BRANCH  19  20
HETATM   20  C   UNK N   1      26.995  44.856  59.016  0.00  0.00    -0.052 A 
HETATM   21  C   UNK N   1      26.602  45.569  60.162  0.00  0.00     0.010 A 
HETATM   22  C   UNK N   1      26.110  46.880  60.044  0.00  0.00     0.037 A 
HETATM   23  C   UNK N   1      25.996  47.487  58.773  0.00  0.00     0.068 A 
HETATM   24  C   UNK N   1      26.374  46.764  57.640  0.00  0.00     0.037 A 
HETATM   25  C   UNK N   1      26.875  45.469  57.757  0.00  0.00     0.010 A 
BRANCH  23  26
HETATM   26  O   UNK N   1      25.538  48.756  58.601  0.00  0.00    -0.356 OA
HETATM   27  C   UNK N   1      25.778  49.556  57.505  0.00  0.00     0.210 C 
ENDBRANCH  23  26
ENDBRANCH  19  20
ENDBRANCH   5  19
BRANCH   6  28
HETATM   28  C   UNK N   1      30.547  44.681  59.324  0.00  0.00     0.098 C 
BRANCH  28  29
HETATM   29  C   UNK N   1      30.236  46.147  59.115  0.00  0.00    -0.052 A 
HETATM   30  C   UNK N   1      29.840  46.989  60.173  0.00  0.00     0.010 A 
HETATM   31  C   UNK N   1      29.506  48.320  59.929  0.00  0.00     0.037 A 
HETATM   32  C   UNK N   1      29.573  48.843  58.622  0.00  0.00     0.068 A 
HETATM   33  C   UNK N   1      29.984  48.011  57.574  0.00  0.00     0.037 A 
HETATM   34  C   UNK N   1      30.305  46.672  57.816  0.00  0.00     0.010 A 
BRANCH  32  35
HETATM   35  O   UNK N   1      29.243  50.131  58.342  0.00  0.00    -0.356 OA
HETATM   36  C   UNK N   1      29.368  50.725  57.102  0.00  0.00     0.210 C 
ENDBRANCH  32  35
ENDBRANCH  28  29
ENDBRANCH   6  28
TORSDOF 7
ENDMDL
MODEL 6
REMARK VINA RESULT:      -6.0     14.520     17.231
REMARK  7 active torsions:
REMARK  status: ('A' for Active; 'I' for Inactive)
REMARK    1  A    between atoms: C_5  and  N_6 
REMARK       I    between atoms: N_6  and  C_7 
REMARK    2  A    between atoms: C_10  and  C_11 
REMARK    3  A    between atoms: C_11  and  C_12 
REMARK    4  A    between atoms: C_15  and  O_16 
REMARK    5  A    between atoms: C_20  and  C_23 
REMARK    6  A    between atoms: C_23  and  C_24 
REMARK    7  A    between atoms: C_27  and  O_28 
ROOT
HETATM    1  N   UNK N   1      28.757  41.064  55.754  0.00  0.00    -0.171 N 
HETATM    2  C   UNK N   1      29.645  41.483  56.785  0.00  0.00     0.686 A 
HETATM    3  N   UNK N   1      30.439  42.574  56.719  0.00  0.00    -0.193 N 
ATOM      4  HN  UNK N   1      30.534  43.228  55.942  1.00  0.00     0.184 HD
HETATM    5  C   UNK N   1      31.082  42.609  57.911  0.00  0.00     0.054 A 
HETATM    6  C   UNK N   1      30.671  41.532  58.678  0.00  0.00     0.056 A 
HETATM    7  N   UNK N   1      29.766  40.832  57.963  0.00  0.00    -0.189 N 
HETATM    8  C   UNK N   1      29.038  39.622  58.350  0.00  0.00     0.175 C 
HETATM    9  H   UNK N   1      28.215  40.200  55.897  0.00  0.00     0.186 HD
ENDROOT
BRANCH   1  10
HETATM   10  C   UNK N   1      28.527  41.778  54.546  0.00  0.00     0.194 A 
HETATM   11  N   UNK N   1      29.323  41.829  53.532  0.00  0.00    -0.289 N 
HETATM   12  C   UNK N   1      28.728  42.631  52.606  0.00  0.00     0.330 A 
ATOM     13  HN  UNK N   1      30.224  41.360  53.442  1.00  0.00     0.172 HD
HETATM   14  O   UNK N   1      29.220  42.893  51.520  0.00  0.00    -0.246 OA
HETATM   15  N   UNK N   1      27.534  43.102  53.032  0.00  0.00    -0.268 N 
HETATM   16  C   UNK N   1      27.357  42.594  54.257  0.00  0.00     0.296 A 
HETATM   17  C   UNK N   1      26.631  43.977  52.312  0.00  0.00     0.165 C 
HETATM   18  O   UNK N   1      26.389  42.794  54.974  0.00  0.00    -0.264 OA
ENDBRANCH   1  10
BRANCH   5  19
HETATM   19  C   UNK N   1      31.984  43.742  58.323  0.00  0.00     0.098 C 
BRANCH  19  20
HETATM   20  C   UNK N   1      31.186  45.010  58.541  0.00  0.00    -0.052 A 
HETATM   21  C   UNK N   1      30.569  45.289  59.774  0.00  0.00     0.010 A 
HETATM   22  C   UNK N   1      29.873  46.496  59.958  0.00  0.00     0.037 A 
HETATM   23  C   UNK N   1      29.778  47.432  58.904  0.00  0.00     0.068 A 
HETATM   24  C   UNK N   1      30.381  47.138  57.680  0.00  0.00     0.037 A 
HETATM   25  C   UNK N   1      31.083  45.947  57.500  0.00  0.00     0.010 A 
BRANCH  23  26
HETATM   26  O   UNK N   1      29.129  48.619  59.031  0.00  0.00    -0.356 OA
HETATM   27  C   UNK N   1      29.534  49.820  58.487  0.00  0.00     0.210 C 
ENDBRANCH  23  26
ENDBRANCH  19  20
ENDBRANCH   5  19
BRANCH   6  28
HETATM   28  C   UNK N   1      31.123  41.180  60.074  0.00  0.00     0.098 C 
BRANCH  28  29
HETATM   29  C   UNK N   1      30.501  42.027  61.162  0.00  0.00    -0.052 A 
HETATM   30  C   UNK N   1      29.120  42.306  61.199  0.00  0.00     0.010 A 
HETATM   31  C   UNK N   1      28.595  43.138  62.185  0.00  0.00     0.037 A 
HETATM   32  C   UNK N   1      29.437  43.701  63.165  0.00  0.00     0.068 A 
HETATM   33  C   UNK N   1      30.806  43.410  63.138  0.00  0.00     0.037 A 
HETATM   34  C   UNK N   1      31.336  42.586  62.141  0.00  0.00     0.010 A 
BRANCH  32  35
HETATM   35  O   UNK N   1      28.965  44.528  64.135  0.00  0.00    -0.356 OA
HETATM   36  C   UNK N   1      27.713  44.437  64.709  0.00  0.00     0.210 C 
ENDBRANCH  32  35
ENDBRANCH  28  29
ENDBRANCH   6  28
TORSDOF 7
ENDMDL
MODEL 7
REMARK VINA RESULT:      -5.9     13.996     17.446
REMARK  7 active torsions:
REMARK  status: ('A' for Active; 'I' for Inactive)
REMARK    1  A    between atoms: C_5  and  N_6 
REMARK       I    between atoms: N_6  and  C_7 
REMARK    2  A    between atoms: C_10  and  C_11 
REMARK    3  A    between atoms: C_11  and  C_12 
REMARK    4  A    between atoms: C_15  and  O_16 
REMARK    5  A    between atoms: C_20  and  C_23 
REMARK    6  A    between atoms: C_23  and  C_24 
REMARK    7  A    between atoms: C_27  and  O_28 
ROOT
HETATM    1  N   UNK N   1      50.871  49.055  58.062  0.00  0.00    -0.171 N 
HETATM    2  C   UNK N   1      51.320  50.406  58.109  0.00  0.00     0.686 A 
HETATM    3  N   UNK N   1      52.201  50.954  57.245  0.00  0.00    -0.193 N 
ATOM      4  HN  UNK N   1      52.677  50.496  56.467  1.00  0.00     0.184 HD
HETATM    5  C   UNK N   1      52.315  52.246  57.636  0.00  0.00     0.054 A 
HETATM    6  C   UNK N   1      51.504  52.457  58.739  0.00  0.00     0.056 A 
HETATM    7  N   UNK N   1      50.881  51.296  59.026  0.00  0.00    -0.189 N 
HETATM    8  C   UNK N   1      49.917  51.019  60.093  0.00  0.00     0.175 C 
HETATM    9  H   UNK N   1      50.216  48.732  58.787  0.00  0.00     0.186 HD
ENDROOT
BRANCH   1  10
HETATM   10  C   UNK N   1      51.231  48.120  57.053  0.00  0.00     0.194 A 
HETATM   11  N   UNK N   1      50.428  47.569  56.208  0.00  0.00    -0.289 N 
HETATM   12  C   UNK N   1      51.180  46.732  55.440  0.00  0.00     0.330 A 
ATOM     13  HN  UNK N   1      49.424  47.728  56.130  1.00  0.00     0.172 HD
HETATM   14  O   UNK N   1      50.725  46.049  54.536  0.00  0.00    -0.246 OA
HETATM   15  N   UNK N   1      52.484  46.745  55.799  0.00  0.00    -0.268 N 
HETATM   16  C   UNK N   1      52.574  47.607  56.818  0.00  0.00     0.296 A 
HETATM   17  C   UNK N   1      53.564  45.984  55.203  0.00  0.00     0.165 C 
HETATM   18  O   UNK N   1      53.599  47.890  57.419  0.00  0.00    -0.264 OA
ENDBRANCH   1  10
BRANCH   5  19
HETATM   19  C   UNK N   1      53.110  53.269  56.869  0.00  0.00     0.098 C 
BRANCH  19  20
HETATM   20  C   UNK N   1      52.189  54.205  56.115  0.00  0.00    -0.052 A 
HETATM   21  C   UNK N   1      52.342  55.601  56.183  0.00  0.00     0.010 A 
HETATM   22  C   UNK N   1      51.499  56.442  55.435  0.00  0.00     0.037 A 
HETATM   23  C   UNK N   1      50.486  55.891  54.619  0.00  0.00     0.068 A 
HETATM   24  C   UNK N   1      50.333  54.504  54.571  0.00  0.00     0.037 A 
HETATM   25  C   UNK N   1      51.176  53.669  55.301  0.00  0.00     0.010 A 
BRANCH  23  26
HETATM   26  O   UNK N   1      49.651  56.655  53.865  0.00  0.00    -0.356 OA
HETATM   27  C   UNK N   1      48.674  57.498  54.350  0.00  0.00     0.210 C 
ENDBRANCH  23  26
ENDBRANCH  19  20
ENDBRANCH   5  19
BRANCH   6  28
HETATM   28  C   UNK N   1      51.316  53.746  59.501  0.00  0.00     0.098 C 
BRANCH  28  29
HETATM   29  C   UNK N   1      50.195  54.618  58.980  0.00  0.00    -0.052 A 
HETATM   30  C   UNK N   1      49.117  54.094  58.240  0.00  0.00     0.010 A 
HETATM   31  C   UNK N   1      48.134  54.939  57.729  0.00  0.00     0.037 A 
HETATM   32  C   UNK N   1      48.201  56.328  57.956  0.00  0.00     0.068 A 
HETATM   33  C   UNK N   1      49.262  56.848  58.707  0.00  0.00     0.037 A 
HETATM   34  C   UNK N   1      50.256  56.002  59.208  0.00  0.00     0.010 A 
BRANCH  32  35
HETATM   35  O   UNK N   1      47.269  57.186  57.463  0.00  0.00    -0.356 OA
HETATM   36  C   UNK N   1      46.151  57.615  58.149  0.00  0.00     0.210 C 
ENDBRANCH  32  35
ENDBRANCH  28  29
ENDBRANCH   6  28
TORSDOF 7
ENDMDL
MODEL 8
REMARK VINA RESULT:      -5.9     14.583     17.754
REMARK  7 active torsions:
REMARK  status: ('A' for Active; 'I' for Inactive)
REMARK    1  A    between atoms: C_5  and  N_6 
REMARK       I    between atoms: N_6  and  C_7 
REMARK    2  A    between atoms: C_10  and  C_11 
REMARK    3  A    between atoms: C_11  and  C_12 
REMARK    4  A    between atoms: C_15  and  O_16 
REMARK    5  A    between atoms: C_20  and  C_23 
REMARK    6  A    between atoms: C_23  and  C_24 
REMARK    7  A    between atoms: C_27  and  O_28 
ROOT
HETATM    1  N   UNK N   1      30.445  45.235  59.249  0.00  0.00    -0.171 N 
HETATM    2  C   UNK N   1      30.968  45.089  60.566  0.00  0.00     0.686 A 
HETATM    3  N   UNK N   1      31.715  44.044  60.984  0.00  0.00    -0.193 N 
ATOM      4  HN  UNK N   1      31.992  43.223  60.447  1.00  0.00     0.184 HD
HETATM    5  C   UNK N   1      32.017  44.327  62.274  0.00  0.00     0.054 A 
HETATM    6  C   UNK N   1      31.439  45.539  62.618  0.00  0.00     0.056 A 
HETATM    7  N   UNK N   1      30.785  46.010  61.536  0.00  0.00    -0.189 N 
HETATM    8  C   UNK N   1      30.032  47.258  61.401  0.00  0.00     0.175 C 
HETATM    9  H   UNK N   1      29.864  46.059  59.042  0.00  0.00     0.186 HD
ENDROOT
BRANCH   1  10
HETATM   10  C   UNK N   1      30.701  44.339  58.174  0.00  0.00     0.194 A 
HETATM   11  N   UNK N   1      31.812  44.225  57.530  0.00  0.00    -0.289 N 
HETATM   12  C   UNK N   1      31.618  43.271  56.578  0.00  0.00     0.330 A 
ATOM     13  HN  UNK N   1      32.671  44.748  57.701  1.00  0.00     0.172 HD
HETATM   14  O   UNK N   1      32.478  42.917  55.787  0.00  0.00    -0.246 OA
HETATM   15  N   UNK N   1      30.363  42.768  56.610  0.00  0.00    -0.268 N 
HETATM   16  C   UNK N   1      29.737  43.410  57.603  0.00  0.00     0.296 A 
HETATM   17  C   UNK N   1      29.809  41.743  55.749  0.00  0.00     0.165 C 
HETATM   18  O   UNK N   1      28.578  43.231  57.942  0.00  0.00    -0.264 OA
ENDBRANCH   1  10
BRANCH   5  19
HETATM   19  C   UNK N   1      32.948  43.483  63.103  0.00  0.00     0.098 C 
BRANCH  19  20
HETATM   20  C   UNK N   1      34.359  44.029  63.044  0.00  0.00    -0.052 A 
HETATM   21  C   UNK N   1      35.012  44.254  61.819  0.00  0.00     0.010 A 
HETATM   22  C   UNK N   1      36.305  44.804  61.797  0.00  0.00     0.037 A 
HETATM   23  C   UNK N   1      36.963  45.124  63.006  0.00  0.00     0.068 A 
HETATM   24  C   UNK N   1      36.313  44.882  64.217  0.00  0.00     0.037 A 
HETATM   25  C   UNK N   1      35.025  44.349  64.240  0.00  0.00     0.010 A 
BRANCH  23  26
HETATM   26  O   UNK N   1      38.208  45.669  63.044  0.00  0.00    -0.356 OA
HETATM   27  C   UNK N   1      38.582  46.770  63.785  0.00  0.00     0.210 C 
ENDBRANCH  23  26
ENDBRANCH  19  20
ENDBRANCH   5  19
BRANCH   6  28
HETATM   28  C   UNK N   1      31.518  46.242  63.951  0.00  0.00     0.098 C 
BRANCH  28  29
HETATM   29  C   UNK N   1      32.346  47.507  63.939  0.00  0.00    -0.052 A 
HETATM   30  C   UNK N   1      33.710  47.509  63.582  0.00  0.00     0.010 A 
HETATM   31  C   UNK N   1      34.453  48.686  63.639  0.00  0.00     0.037 A 
HETATM   32  C   UNK N   1      33.846  49.893  64.042  0.00  0.00     0.068 A 
HETATM   33  C   UNK N   1      32.487  49.895  64.379  0.00  0.00     0.037 A 
HETATM   34  C   UNK N   1      31.745  48.711  64.335  0.00  0.00     0.010 A 
BRANCH  32  35
HETATM   35  O   UNK N   1      34.539  51.059  64.123  0.00  0.00    -0.356 OA
HETATM   36  C   UNK N   1      34.225  52.213  63.435  0.00  0.00     0.210 C 
ENDBRANCH  32  35
ENDBRANCH  28  29
ENDBRANCH   6  28
TORSDOF 7
ENDMDL
MODEL 9
REMARK VINA RESULT:      -5.9     15.732     18.865
REMARK  7 active torsions:
REMARK  status: ('A' for Active; 'I' for Inactive)
REMARK    1  A    between atoms: C_5  and  N_6 
REMARK       I    between atoms: N_6  and  C_7 
REMARK    2  A    between atoms: C_10  and  C_11 
REMARK    3  A    between atoms: C_11  and  C_12 
REMARK    4  A    between atoms: C_15  and  O_16 
REMARK    5  A    between atoms: C_20  and  C_23 
REMARK    6  A    between atoms: C_23  and  C_24 
REMARK    7  A    between atoms: C_27  and  O_28 
ROOT
HETATM    1  N   UNK N   1      29.962  39.764  60.165  0.00  0.00    -0.171 N 
HETATM    2  C   UNK N   1      30.892  40.782  59.809  0.00  0.00     0.686 A 
HETATM    3  N   UNK N   1      32.118  40.927  60.355  0.00  0.00    -0.193 N 
ATOM      4  HN  UNK N   1      32.542  40.364  61.092  1.00  0.00     0.184 HD
HETATM    5  C   UNK N   1      32.663  41.987  59.710  0.00  0.00     0.054 A 
HETATM    6  C   UNK N   1      31.751  42.471  58.786  0.00  0.00     0.056 A 
HETATM    7  N   UNK N   1      30.643  41.705  58.854  0.00  0.00    -0.189 N 
HETATM    8  C   UNK N   1      29.412  41.813  58.069  0.00  0.00     0.175 C 
HETATM    9  H   UNK N   1      29.042  39.759  59.704  0.00  0.00     0.186 HD
ENDROOT
BRANCH   1  10
HETATM   10  C   UNK N   1      30.226  38.716  61.090  0.00  0.00     0.194 A 
HETATM   11  N   UNK N   1      29.466  38.357  62.068  0.00  0.00    -0.289 N 
HETATM   12  C   UNK N   1      30.102  37.336  62.705  0.00  0.00     0.330 A 
ATOM     13  HN  UNK N   1      28.563  38.761  62.316  1.00  0.00     0.172 HD
HETATM   14  O   UNK N   1      29.651  36.762  63.684  0.00  0.00    -0.246 OA
HETATM   15  N   UNK N   1      31.288  37.035  62.128  0.00  0.00    -0.268 N 
HETATM   16  C   UNK N   1      31.419  37.880  61.100  0.00  0.00     0.296 A 
HETATM   17  C   UNK N   1      32.225  36.010  62.538  0.00  0.00     0.165 C 
HETATM   18  O   UNK N   1      32.368  37.922  60.333  0.00  0.00    -0.264 OA
ENDBRANCH   1  10
BRANCH   5  19
HETATM   19  C   UNK N   1      34.087  42.431  59.917  0.00  0.00     0.098 C 
BRANCH  19  20
HETATM   20  C   UNK N   1      34.187  43.371  61.100  0.00  0.00    -0.052 A 
HETATM   21  C   UNK N   1      33.090  43.609  61.947  0.00  0.00     0.010 A 
HETATM   22  C   UNK N   1      33.228  44.452  63.063  0.00  0.00     0.037 A 
HETATM   23  C   UNK N   1      34.467  45.075  63.335  0.00  0.00     0.068 A 
HETATM   24  C   UNK N   1      35.546  44.844  62.479  0.00  0.00     0.037 A 
HETATM   25  C   UNK N   1      35.413  43.998  61.380  0.00  0.00     0.010 A 
BRANCH  23  26
HETATM   26  O   UNK N   1      34.661  45.890  64.406  0.00  0.00    -0.356 OA
HETATM   27  C   UNK N   1      34.908  47.245  64.352  0.00  0.00     0.210 C 
ENDBRANCH  23  26
ENDBRANCH  19  20
ENDBRANCH   5  19
BRANCH   6  28
HETATM   28  C   UNK N   1      31.936  43.637  57.846  0.00  0.00     0.098 C 
BRANCH  28  29
HETATM   29  C   UNK N   1      31.254  44.911  58.292  0.00  0.00    -0.052 A 
HETATM   30  C   UNK N   1      30.734  45.068  59.593  0.00  0.00     0.010 A 
HETATM   31  C   UNK N   1      30.062  46.236  59.948  0.00  0.00     0.037 A 
HETATM   32  C   UNK N   1      29.904  47.279  59.013  0.00  0.00     0.068 A 
HETATM   33  C   UNK N   1      30.437  47.130  57.727  0.00  0.00     0.037 A 
HETATM   34  C   UNK N   1      31.099  45.953  57.366  0.00  0.00     0.010 A 
BRANCH  32  35
HETATM   35  O   UNK N   1      29.244  48.427  59.317  0.00  0.00    -0.356 OA
HETATM   36  C   UNK N   1      28.922  48.838  60.594  0.00  0.00     0.210 C 
ENDBRANCH  32  35
ENDBRANCH  28  29
ENDBRANCH   6  28
TORSDOF 7
ENDMDL
