MODEL 1
REMARK VINA RESULT:      -6.9      0.000      0.000
REMARK  7 active torsions:
REMARK  status: ('A' for Active; 'I' for Inactive)
REMARK    1  A    between atoms: C_5  and  N_6 
REMARK       I    between atoms: N_6  and  C_7 
REMARK    2  A    between atoms: C_10  and  C_11 
REMARK    3  A    between atoms: C_11  and  C_12 
REMARK    4  A    between atoms: C_15  and  O_16 
REMARK    5  A    between atoms: C_20  and  C_23 
REMARK    6  A    between atoms: C_23  and  C_24 
REMARK    7  A    between atoms: C_27  and  O_28 
ROOT
HETATM    1  N   UNK N   1      39.133  48.808  46.388  0.00  0.00    -0.171 N 
HETATM    2  C   UNK N   1      39.227  47.390  46.521  0.00  0.00     0.684 A 
HETATM    3  N   UNK N   1      39.087  46.753  47.707  0.00  0.00    -0.193 N 
ATOM      4  HN  UNK N   1      38.905  47.170  48.620  1.00  0.00     0.184 HD
HETATM    5  C   UNK N   1      39.241  45.443  47.413  0.00  0.00     0.054 A 
HETATM    6  C   UNK N   1      39.451  45.307  46.052  0.00  0.00     0.054 A 
HETATM    7  N   UNK N   1      39.445  46.532  45.502  0.00  0.00    -0.193 N 
HETATM    8  H   UNK N   1      39.572  46.734  44.493  0.00  0.00     0.184 HD
HETATM    9  H   UNK N   1      38.951  49.360  47.240  0.00  0.00     0.186 HD
ENDROOT
BRANCH   1  10
HETATM   10  C   UNK N   1      39.274  49.514  45.152  0.00  0.00     0.194 A 
HETATM   11  N   UNK N   1      39.987  50.573  44.975  0.00  0.00    -0.289 N 
HETATM   12  C   UNK N   1      39.857  50.938  43.677  0.00  0.00     0.330 A 
ATOM     13  HN  UNK N   1      40.547  51.049  45.682  1.00  0.00     0.172 HD
HETATM   14  O   UNK N   1      40.413  51.909  43.188  0.00  0.00    -0.246 OA
HETATM   15  N   UNK N   1      39.046  50.103  42.996  0.00  0.00    -0.268 N 
HETATM   16  C   UNK N   1      38.644  49.177  43.879  0.00  0.00     0.296 A 
HETATM   17  C   UNK N   1      38.692  50.204  41.596  0.00  0.00     0.165 C 
HETATM   18  O   UNK N   1      37.894  48.245  43.636  0.00  0.00    -0.264 OA
ENDBRANCH   1  10
BRANCH   5  19
HETATM   19  C   UNK N   1      39.138  44.327  48.408  0.00  0.00     0.098 C 
BRANCH  19  20
HETATM   20  C   UNK N   1      40.060  44.600  49.564  0.00  0.00    -0.052 A 
HETATM   21  C   UNK N   1      41.121  45.510  49.444  0.00  0.00     0.010 A 
HETATM   22  C   UNK N   1      41.953  45.769  50.541  0.00  0.00     0.037 A 
HETATM   23  C   UNK N   1      41.715  45.131  51.779  0.00  0.00     0.068 A 
HETATM   24  C   UNK N   1      40.652  44.229  51.889  0.00  0.00     0.037 A 
HETATM   25  C   UNK N   1      39.838  43.957  50.792  0.00  0.00     0.010 A 
BRANCH  23  26
HETATM   26  O   UNK N   1      42.480  45.361  52.878  0.00  0.00    -0.356 OA
HETATM   27  C   UNK N   1      42.086  46.082  53.985  0.00  0.00     0.210 C 
ENDBRANCH  23  26
ENDBRANCH  19  20
ENDBRANCH   5  19
BRANCH   6  28
HETATM   28  C   UNK N   1      39.618  44.021  45.274  0.00  0.00     0.098 C 
BRANCH  28  29
HETATM   29  C   UNK N   1      41.064  43.596  45.235  0.00  0.00    -0.052 A 
HETATM   30  C   UNK N   1      41.582  42.752  46.231  0.00  0.00     0.010 A 
HETATM   31  C   UNK N   1      42.905  42.303  46.158  0.00  0.00     0.037 A 
HETATM   32  C   UNK N   1      43.728  42.692  45.080  0.00  0.00     0.068 A 
HETATM   33  C   UNK N   1      43.205  43.535  44.091  0.00  0.00     0.037 A 
HETATM   34  C   UNK N   1      41.882  43.983  44.164  0.00  0.00     0.010 A 
BRANCH  32  35
HETATM   35  O   UNK N   1      45.015  42.272  44.958  0.00  0.00    -0.356 OA
HETATM   36  C   UNK N   1      45.775  41.729  45.974  0.00  0.00     0.210 C 
ENDBRANCH  32  35
ENDBRANCH  28  29
ENDBRANCH   6  28
TORSDOF 7
ENDMDL
MODEL 2
REMARK VINA RESULT:      -6.5     14.110     16.756
REMARK  7 active torsions:
REMARK  status: ('A' for Active; 'I' for Inactive)
REMARK    1  A    between atoms: C_5  and  N_6 
REMARK       I    between atoms: N_6  and  C_7 
REMARK    2  A    between atoms: C_10  and  C_11 
REMARK    3  A    between atoms: C_11  and  C_12 
REMARK    4  A    between atoms: C_15  and  O_16 
REMARK    5  A    between atoms: C_20  and  C_23 
REMARK    6  A    between atoms: C_23  and  C_24 
REMARK    7  A    between atoms: C_27  and  O_28 
ROOT
HETATM    1  N   UNK N   1      30.374  48.271  56.904  0.00  0.00    -0.171 N 
HETATM    2  C   UNK N   1      30.567  47.023  57.569  0.00  0.00     0.684 A 
HETATM    3  N   UNK N   1      31.387  46.057  57.092  0.00  0.00    -0.193 N 
ATOM      4  HN  UNK N   1      31.950  46.081  56.241  1.00  0.00     0.184 HD
HETATM    5  C   UNK N   1      31.294  45.054  57.993  0.00  0.00     0.054 A 
HETATM    6  C   UNK N   1      30.437  45.437  59.009  0.00  0.00     0.054 A 
HETATM    7  N   UNK N   1      29.984  46.669  58.734  0.00  0.00    -0.193 N 
HETATM    8  H   UNK N   1      29.329  47.211  59.328  0.00  0.00     0.184 HD
HETATM    9  H   UNK N   1      30.885  48.432  56.024  0.00  0.00     0.186 HD
ENDROOT
BRANCH   1  10
HETATM   10  C   UNK N   1      29.518  49.314  57.379  0.00  0.00     0.194 A 
HETATM   11  N   UNK N   1      29.910  50.395  57.962  0.00  0.00    -0.289 N 
HETATM   12  C   UNK N   1      28.806  51.120  58.261  0.00  0.00     0.330 A 
ATOM     13  HN  UNK N   1      30.875  50.657  58.160  1.00  0.00     0.172 HD
HETATM   14  O   UNK N   1      28.839  52.204  58.820  0.00  0.00    -0.246 OA
HETATM   15  N   UNK N   1      27.674  50.501  57.867  0.00  0.00    -0.268 N 
HETATM   16  C   UNK N   1      28.060  49.350  57.299  0.00  0.00     0.296 A 
HETATM   17  C   UNK N   1      26.324  50.997  58.034  0.00  0.00     0.165 C 
HETATM   18  O   UNK N   1      27.314  48.511  56.819  0.00  0.00    -0.264 OA
ENDBRANCH   1  10
BRANCH   5  19
HETATM   19  C   UNK N   1      32.054  43.763  57.914  0.00  0.00     0.098 C 
BRANCH  19  20
HETATM   20  C   UNK N   1      31.343  42.820  56.985  0.00  0.00    -0.052 A 
HETATM   21  C   UNK N   1      30.201  42.118  57.400  0.00  0.00     0.010 A 
HETATM   22  C   UNK N   1      29.539  41.263  56.510  0.00  0.00     0.037 A 
HETATM   23  C   UNK N   1      30.005  41.118  55.184  0.00  0.00     0.068 A 
HETATM   24  C   UNK N   1      31.141  41.825  54.779  0.00  0.00     0.037 A 
HETATM   25  C   UNK N   1      31.811  42.660  55.671  0.00  0.00     0.010 A 
BRANCH  23  26
HETATM   26  O   UNK N   1      29.389  40.317  54.276  0.00  0.00    -0.356 OA
HETATM   27  C   UNK N   1      28.161  40.564  53.701  0.00  0.00     0.210 C 
ENDBRANCH  23  26
ENDBRANCH  19  20
ENDBRANCH   5  19
BRANCH   6  28
HETATM   28  C   UNK N   1      30.082  44.653  60.253  0.00  0.00     0.098 C 
BRANCH  28  29
HETATM   29  C   UNK N   1      31.103  44.872  61.341  0.00  0.00    -0.052 A 
HETATM   30  C   UNK N   1      32.109  43.920  61.572  0.00  0.00     0.010 A 
HETATM   31  C   UNK N   1      33.096  44.155  62.535  0.00  0.00     0.037 A 
HETATM   32  C   UNK N   1      33.090  45.353  63.280  0.00  0.00     0.068 A 
HETATM   33  C   UNK N   1      32.083  46.298  63.045  0.00  0.00     0.037 A 
HETATM   34  C   UNK N   1      31.097  46.062  62.082  0.00  0.00     0.010 A 
BRANCH  32  35
HETATM   35  O   UNK N   1      34.035  45.633  64.217  0.00  0.00    -0.356 OA
HETATM   36  C   UNK N   1      35.099  46.494  64.042  0.00  0.00     0.210 C 
ENDBRANCH  32  35
ENDBRANCH  28  29
ENDBRANCH   6  28
TORSDOF 7
ENDMDL
MODEL 3
REMARK VINA RESULT:      -6.5      1.496      2.465
REMARK  7 active torsions:
REMARK  status: ('A' for Active; 'I' for Inactive)
REMARK    1  A    between atoms: C_5  and  N_6 
REMARK       I    between atoms: N_6  and  C_7 
REMARK    2  A    between atoms: C_10  and  C_11 
REMARK    3  A    between atoms: C_11  and  C_12 
REMARK    4  A    between atoms: C_15  and  O_16 
REMARK    5  A    between atoms: C_20  and  C_23 
REMARK    6  A    between atoms: C_23  and  C_24 
REMARK    7  A    between atoms: C_27  and  O_28 
ROOT
HETATM    1  N   UNK N   1      40.249  48.983  45.286  0.00  0.00    -0.171 N 
HETATM    2  C   UNK N   1      40.686  47.767  45.893  0.00  0.00     0.684 A 
HETATM    3  N   UNK N   1      41.656  47.725  46.836  0.00  0.00    -0.193 N 
ATOM      4  HN  UNK N   1      42.181  48.508  47.225  1.00  0.00     0.184 HD
HETATM    5  C   UNK N   1      41.772  46.415  47.148  0.00  0.00     0.054 A 
HETATM    6  C   UNK N   1      40.859  45.690  46.404  0.00  0.00     0.054 A 
HETATM    7  N   UNK N   1      40.186  46.544  45.618  0.00  0.00    -0.193 N 
HETATM    8  H   UNK N   1      39.432  46.279  44.957  0.00  0.00     0.184 HD
HETATM    9  H   UNK N   1      40.700  49.860  45.587  0.00  0.00     0.186 HD
ENDROOT
BRANCH   1  10
HETATM   10  C   UNK N   1      39.228  49.066  44.287  0.00  0.00     0.194 A 
HETATM   11  N   UNK N   1      38.223  48.267  44.179  0.00  0.00    -0.289 N 
HETATM   12  C   UNK N   1      37.492  48.672  43.114  0.00  0.00     0.330 A 
ATOM     13  HN  UNK N   1      38.015  47.474  44.786  1.00  0.00     0.172 HD
HETATM   14  O   UNK N   1      36.469  48.119  42.745  0.00  0.00    -0.246 OA
HETATM   15  N   UNK N   1      38.030  49.755  42.516  0.00  0.00    -0.268 N 
HETATM   16  C   UNK N   1      39.134  50.054  43.216  0.00  0.00     0.296 A 
HETATM   17  C   UNK N   1      37.506  50.441  41.354  0.00  0.00     0.165 C 
HETATM   18  O   UNK N   1      39.896  50.977  42.978  0.00  0.00    -0.264 OA
ENDBRANCH   1  10
BRANCH   5  19
HETATM   19  C   UNK N   1      42.708  45.864  48.182  0.00  0.00     0.098 C 
BRANCH  19  20
HETATM   20  C   UNK N   1      41.924  45.442  49.392  0.00  0.00    -0.052 A 
HETATM   21  C   UNK N   1      40.713  44.744  49.263  0.00  0.00     0.010 A 
HETATM   22  C   UNK N   1      40.011  44.337  50.404  0.00  0.00     0.037 A 
HETATM   23  C   UNK N   1      40.527  44.609  51.691  0.00  0.00     0.068 A 
HETATM   24  C   UNK N   1      41.735  45.301  51.809  0.00  0.00     0.037 A 
HETATM   25  C   UNK N   1      42.423  45.723  50.673  0.00  0.00     0.010 A 
BRANCH  23  26
HETATM   26  O   UNK N   1      39.895  44.219  52.829  0.00  0.00    -0.356 OA
HETATM   27  C   UNK N   1      39.587  42.918  53.163  0.00  0.00     0.210 C 
ENDBRANCH  23  26
ENDBRANCH  19  20
ENDBRANCH   5  19
BRANCH   6  28
HETATM   28  C   UNK N   1      40.600  44.201  46.468  0.00  0.00     0.098 C 
BRANCH  28  29
HETATM   29  C   UNK N   1      41.775  43.424  45.930  0.00  0.00    -0.052 A 
HETATM   30  C   UNK N   1      42.358  43.779  44.703  0.00  0.00     0.010 A 
HETATM   31  C   UNK N   1      43.488  43.102  44.236  0.00  0.00     0.037 A 
HETATM   32  C   UNK N   1      44.055  42.057  44.998  0.00  0.00     0.068 A 
HETATM   33  C   UNK N   1      43.467  41.708  46.220  0.00  0.00     0.037 A 
HETATM   34  C   UNK N   1      42.337  42.386  46.686  0.00  0.00     0.010 A 
BRANCH  32  35
HETATM   35  O   UNK N   1      45.161  41.378  44.593  0.00  0.00    -0.356 OA
HETATM   36  C   UNK N   1      45.396  40.934  43.308  0.00  0.00     0.210 C 
ENDBRANCH  32  35
ENDBRANCH  28  29
ENDBRANCH   6  28
TORSDOF 7
ENDMDL
MODEL 4
REMARK VINA RESULT:      -6.5     10.709     16.656
REMARK  7 active torsions:
REMARK  status: ('A' for Active; 'I' for Inactive)
REMARK    1  A    between atoms: C_5  and  N_6 
REMARK       I    between atoms: N_6  and  C_7 
REMARK    2  A    between atoms: C_10  and  C_11 
REMARK    3  A    between atoms: C_11  and  C_12 
REMARK    4  A    between atoms: C_15  and  O_16 
REMARK    5  A    between atoms: C_20  and  C_23 
REMARK    6  A    between atoms: C_23  and  C_24 
REMARK    7  A    between atoms: C_27  and  O_28 
ROOT
HETATM    1  N   UNK N   1      31.599  54.506  44.108  0.00  0.00    -0.171 N 
HETATM    2  C   UNK N   1      31.168  54.989  42.835  0.00  0.00     0.684 A 
HETATM    3  N   UNK N   1      30.409  56.100  42.692  0.00  0.00    -0.193 N 
ATOM      4  HN  UNK N   1      30.058  56.715  43.426  1.00  0.00     0.184 HD
HETATM    5  C   UNK N   1      30.220  56.215  41.359  0.00  0.00     0.054 A 
HETATM    6  C   UNK N   1      30.884  55.185  40.717  0.00  0.00     0.054 A 
HETATM    7  N   UNK N   1      31.471  54.419  41.650  0.00  0.00    -0.193 N 
HETATM    8  H   UNK N   1      32.044  53.577  41.457  0.00  0.00     0.184 HD
HETATM    9  H   UNK N   1      31.313  55.034  44.945  0.00  0.00     0.186 HD
ENDROOT
BRANCH   1  10
HETATM   10  C   UNK N   1      32.402  53.337  44.298  0.00  0.00     0.194 A 
HETATM   11  N   UNK N   1      33.349  53.214  45.163  0.00  0.00    -0.289 N 
HETATM   12  C   UNK N   1      33.866  51.969  45.027  0.00  0.00     0.330 A 
ATOM     13  HN  UNK N   1      33.653  53.924  45.830  1.00  0.00     0.172 HD
HETATM   14  O   UNK N   1      34.783  51.540  45.707  0.00  0.00    -0.246 OA
HETATM   15  N   UNK N   1      33.245  51.269  44.056  0.00  0.00    -0.268 N 
HETATM   16  C   UNK N   1      32.305  52.083  43.555  0.00  0.00     0.296 A 
HETATM   17  C   UNK N   1      33.549  49.913  43.651  0.00  0.00     0.165 C 
HETATM   18  O   UNK N   1      31.533  51.804  42.651  0.00  0.00    -0.264 OA
ENDBRANCH   1  10
BRANCH   5  19
HETATM   19  C   UNK N   1      29.458  57.325  40.697  0.00  0.00     0.098 C 
BRANCH  19  20
HETATM   20  C   UNK N   1      28.253  56.758  40.000  0.00  0.00    -0.052 A 
HETATM   21  C   UNK N   1      27.975  57.076  38.662  0.00  0.00     0.010 A 
HETATM   22  C   UNK N   1      26.860  56.517  38.024  0.00  0.00     0.037 A 
HETATM   23  C   UNK N   1      26.023  55.615  38.717  0.00  0.00     0.068 A 
HETATM   24  C   UNK N   1      26.311  55.301  40.048  0.00  0.00     0.037 A 
HETATM   25  C   UNK N   1      27.409  55.873  40.688  0.00  0.00     0.010 A 
BRANCH  23  26
HETATM   26  O   UNK N   1      24.941  55.030  38.139  0.00  0.00    -0.356 OA
HETATM   27  C   UNK N   1      24.875  54.595  36.833  0.00  0.00     0.210 C 
ENDBRANCH  23  26
ENDBRANCH  19  20
ENDBRANCH   5  19
BRANCH   6  28
HETATM   28  C   UNK N   1      30.992  54.951  39.227  0.00  0.00     0.098 C 
BRANCH  28  29
HETATM   29  C   UNK N   1      29.956  53.960  38.758  0.00  0.00    -0.052 A 
HETATM   30  C   UNK N   1      29.394  53.042  39.660  0.00  0.00     0.010 A 
HETATM   31  C   UNK N   1      28.385  52.169  39.242  0.00  0.00     0.037 A 
HETATM   32  C   UNK N   1      27.922  52.205  37.909  0.00  0.00     0.068 A 
HETATM   33  C   UNK N   1      28.489  53.123  37.014  0.00  0.00     0.037 A 
HETATM   34  C   UNK N   1      29.497  53.995  37.434  0.00  0.00     0.010 A 
BRANCH  32  35
HETATM   35  O   UNK N   1      26.935  51.386  37.457  0.00  0.00    -0.356 OA
HETATM   36  C   UNK N   1      25.724  51.178  38.086  0.00  0.00     0.210 C 
ENDBRANCH  32  35
ENDBRANCH  28  29
ENDBRANCH   6  28
TORSDOF 7
ENDMDL
MODEL 5
REMARK VINA RESULT:      -6.3     14.013     16.088
REMARK  7 active torsions:
REMARK  status: ('A' for Active; 'I' for Inactive)
REMARK    1  A    between atoms: C_5  and  N_6 
REMARK       I    between atoms: N_6  and  C_7 
REMARK    2  A    between atoms: C_10  and  C_11 
REMARK    3  A    between atoms: C_11  and  C_12 
REMARK    4  A    between atoms: C_15  and  O_16 
REMARK    5  A    between atoms: C_20  and  C_23 
REMARK    6  A    between atoms: C_23  and  C_24 
REMARK    7  A    between atoms: C_27  and  O_28 
ROOT
HETATM    1  N   UNK N   1      29.642  41.073  55.601  0.00  0.00    -0.171 N 
HETATM    2  C   UNK N   1      29.661  41.639  56.912  0.00  0.00     0.684 A 
HETATM    3  N   UNK N   1      30.174  40.991  57.984  0.00  0.00    -0.193 N 
ATOM      4  HN  UNK N   1      30.596  40.063  58.008  1.00  0.00     0.184 HD
HETATM    5  C   UNK N   1      30.004  41.848  59.014  0.00  0.00     0.054 A 
HETATM    6  C   UNK N   1      29.410  43.007  58.547  0.00  0.00     0.054 A 
HETATM    7  N   UNK N   1      29.195  42.865  57.230  0.00  0.00    -0.193 N 
HETATM    8  H   UNK N   1      28.766  43.582  56.614  0.00  0.00     0.184 HD
HETATM    9  H   UNK N   1      30.039  40.130  55.480  0.00  0.00     0.186 HD
ENDROOT
BRANCH   1  10
HETATM   10  C   UNK N   1      29.109  41.727  54.446  0.00  0.00     0.194 A 
HETATM   11  N   UNK N   1      29.729  41.892  53.329  0.00  0.00    -0.289 N 
HETATM   12  C   UNK N   1      28.895  42.556  52.494  0.00  0.00     0.330 A 
ATOM     13  HN  UNK N   1      30.675  41.578  53.112  1.00  0.00     0.172 HD
HETATM   14  O   UNK N   1      29.187  42.866  51.350  0.00  0.00    -0.246 OA
HETATM   15  N   UNK N   1      27.710  42.830  53.077  0.00  0.00    -0.268 N 
HETATM   16  C   UNK N   1      27.784  42.328  54.319  0.00  0.00     0.296 A 
HETATM   17  C   UNK N   1      26.597  43.527  52.469  0.00  0.00     0.165 C 
HETATM   18  O   UNK N   1      26.900  42.381  55.159  0.00  0.00    -0.264 OA
ENDBRANCH   1  10
BRANCH   5  19
HETATM   19  C   UNK N   1      30.450  41.589  60.423  0.00  0.00     0.098 C 
BRANCH  19  20
HETATM   20  C   UNK N   1      31.779  42.250  60.656  0.00  0.00    -0.052 A 
HETATM   21  C   UNK N   1      31.983  43.098  61.755  0.00  0.00     0.010 A 
HETATM   22  C   UNK N   1      33.237  43.684  61.968  0.00  0.00     0.037 A 
HETATM   23  C   UNK N   1      34.309  43.408  61.091  0.00  0.00     0.068 A 
HETATM   24  C   UNK N   1      34.097  42.558  60.001  0.00  0.00     0.037 A 
HETATM   25  C   UNK N   1      32.843  41.991  59.779  0.00  0.00     0.010 A 
BRANCH  23  26
HETATM   26  O   UNK N   1      35.549  43.934  61.264  0.00  0.00    -0.356 OA
HETATM   27  C   UNK N   1      35.906  44.822  62.256  0.00  0.00     0.210 C 
ENDBRANCH  23  26
ENDBRANCH  19  20
ENDBRANCH   5  19
BRANCH   6  28
HETATM   28  C   UNK N   1      29.084  44.255  59.337  0.00  0.00     0.098 C 
BRANCH  28  29
HETATM   29  C   UNK N   1      29.452  45.496  58.565  0.00  0.00    -0.052 A 
HETATM   30  C   UNK N   1      28.541  46.559  58.456  0.00  0.00     0.010 A 
HETATM   31  C   UNK N   1      28.906  47.737  57.797  0.00  0.00     0.037 A 
HETATM   32  C   UNK N   1      30.196  47.868  57.239  0.00  0.00     0.068 A 
HETATM   33  C   UNK N   1      31.099  46.803  57.351  0.00  0.00     0.037 A 
HETATM   34  C   UNK N   1      30.733  45.626  58.010  0.00  0.00     0.010 A 
BRANCH  32  35
HETATM   35  O   UNK N   1      30.603  48.998  56.601  0.00  0.00    -0.356 OA
HETATM   36  C   UNK N   1      29.895  50.182  56.551  0.00  0.00     0.210 C 
ENDBRANCH  32  35
ENDBRANCH  28  29
ENDBRANCH   6  28
TORSDOF 7
ENDMDL
MODEL 6
REMARK VINA RESULT:      -6.1     11.021     16.510
REMARK  7 active torsions:
REMARK  status: ('A' for Active; 'I' for Inactive)
REMARK    1  A    between atoms: C_5  and  N_6 
REMARK       I    between atoms: N_6  and  C_7 
REMARK    2  A    between atoms: C_10  and  C_11 
REMARK    3  A    between atoms: C_11  and  C_12 
REMARK    4  A    between atoms: C_15  and  O_16 
REMARK    5  A    between atoms: C_20  and  C_23 
REMARK    6  A    between atoms: C_23  and  C_24 
REMARK    7  A    between atoms: C_27  and  O_28 
ROOT
HETATM    1  N   UNK N   1      31.620  54.471  44.105  0.00  0.00    -0.171 N 
HETATM    2  C   UNK N   1      31.168  54.976  42.847  0.00  0.00     0.684 A 
HETATM    3  N   UNK N   1      30.423  56.100  42.734  0.00  0.00    -0.193 N 
ATOM      4  HN  UNK N   1      30.097  56.711  43.484  1.00  0.00     0.184 HD
HETATM    5  C   UNK N   1      30.206  56.234  41.407  0.00  0.00     0.054 A 
HETATM    6  C   UNK N   1      30.840  55.202  40.739  0.00  0.00     0.054 A 
HETATM    7  N   UNK N   1      31.436  54.417  41.649  0.00  0.00    -0.193 N 
HETATM    8  H   UNK N   1      31.993  53.569  41.433  0.00  0.00     0.184 HD
HETATM    9  H   UNK N   1      31.360  54.994  44.954  0.00  0.00     0.186 HD
ENDROOT
BRANCH   1  10
HETATM   10  C   UNK N   1      32.409  53.289  44.262  0.00  0.00     0.194 A 
HETATM   11  N   UNK N   1      33.371  53.141  45.106  0.00  0.00    -0.289 N 
HETATM   12  C   UNK N   1      33.867  51.891  44.943  0.00  0.00     0.330 A 
ATOM     13  HN  UNK N   1      33.700  53.837  45.775  1.00  0.00     0.172 HD
HETATM   14  O   UNK N   1      34.792  51.439  45.599  0.00  0.00    -0.246 OA
HETATM   15  N   UNK N   1      33.217  51.212  43.977  0.00  0.00    -0.268 N 
HETATM   16  C   UNK N   1      32.278  52.046  43.506  0.00  0.00     0.296 A 
HETATM   17  C   UNK N   1      33.492  49.857  43.547  0.00  0.00     0.165 C 
HETATM   18  O   UNK N   1      31.484  51.790  42.615  0.00  0.00    -0.264 OA
ENDBRANCH   1  10
BRANCH   5  19
HETATM   19  C   UNK N   1      29.447  57.363  40.776  0.00  0.00     0.098 C 
BRANCH  19  20
HETATM   20  C   UNK N   1      28.052  57.402  41.334  0.00  0.00    -0.052 A 
HETATM   21  C   UNK N   1      27.162  56.336  41.133  0.00  0.00     0.010 A 
HETATM   22  C   UNK N   1      25.875  56.381  41.683  0.00  0.00     0.037 A 
HETATM   23  C   UNK N   1      25.473  57.490  42.461  0.00  0.00     0.068 A 
HETATM   24  C   UNK N   1      26.369  58.545  42.660  0.00  0.00     0.037 A 
HETATM   25  C   UNK N   1      27.642  58.508  42.094  0.00  0.00     0.010 A 
BRANCH  23  26
HETATM   26  O   UNK N   1      24.244  57.574  43.033  0.00  0.00    -0.356 OA
HETATM   27  C   UNK N   1      23.975  58.132  44.265  0.00  0.00     0.210 C 
ENDBRANCH  23  26
ENDBRANCH  19  20
ENDBRANCH   5  19
BRANCH   6  28
HETATM   28  C   UNK N   1      30.912  54.985  39.243  0.00  0.00     0.098 C 
BRANCH  28  29
HETATM   29  C   UNK N   1      29.813  54.065  38.777  0.00  0.00    -0.052 A 
HETATM   30  C   UNK N   1      29.589  53.867  37.405  0.00  0.00     0.010 A 
HETATM   31  C   UNK N   1      28.614  52.962  36.972  0.00  0.00     0.037 A 
HETATM   32  C   UNK N   1      27.850  52.238  37.912  0.00  0.00     0.068 A 
HETATM   33  C   UNK N   1      28.079  52.441  39.279  0.00  0.00     0.037 A 
HETATM   34  C   UNK N   1      29.053  53.346  39.710  0.00  0.00     0.010 A 
BRANCH  32  35
HETATM   35  O   UNK N   1      26.901  51.338  37.541  0.00  0.00    -0.356 OA
HETATM   36  C   UNK N   1      25.828  50.948  38.316  0.00  0.00     0.210 C 
ENDBRANCH  32  35
ENDBRANCH  28  29
ENDBRANCH   6  28
TORSDOF 7
ENDMDL
MODEL 7
REMARK VINA RESULT:      -6.0     13.469     15.750
REMARK  7 active torsions:
REMARK  status: ('A' for Active; 'I' for Inactive)
REMARK    1  A    between atoms: C_5  and  N_6 
REMARK       I    between atoms: N_6  and  C_7 
REMARK    2  A    between atoms: C_10  and  C_11 
REMARK    3  A    between atoms: C_11  and  C_12 
REMARK    4  A    between atoms: C_15  and  O_16 
REMARK    5  A    between atoms: C_20  and  C_23 
REMARK    6  A    between atoms: C_23  and  C_24 
REMARK    7  A    between atoms: C_27  and  O_28 
ROOT
HETATM    1  N   UNK N   1      49.114  54.337  57.283  0.00  0.00    -0.171 N 
HETATM    2  C   UNK N   1      49.492  53.376  58.270  0.00  0.00     0.684 A 
HETATM    3  N   UNK N   1      48.761  53.146  59.386  0.00  0.00    -0.193 N 
ATOM      4  HN  UNK N   1      47.890  53.597  59.665  1.00  0.00     0.184 HD
HETATM    5  C   UNK N   1      49.443  52.186  60.049  0.00  0.00     0.054 A 
HETATM    6  C   UNK N   1      50.562  51.837  59.314  0.00  0.00     0.054 A 
HETATM    7  N   UNK N   1      50.587  52.590  58.204  0.00  0.00    -0.193 N 
HETATM    8  H   UNK N   1      51.311  52.539  57.464  0.00  0.00     0.184 HD
HETATM    9  H   UNK N   1      48.247  54.871  57.438  0.00  0.00     0.186 HD
ENDROOT
BRANCH   1  10
HETATM   10  C   UNK N   1      49.860  54.605  56.092  0.00  0.00     0.194 A 
HETATM   11  N   UNK N   1      50.118  53.750  55.163  0.00  0.00    -0.289 N 
HETATM   12  C   UNK N   1      50.846  54.386  54.215  0.00  0.00     0.330 A 
ATOM     13  HN  UNK N   1      49.825  52.773  55.145  1.00  0.00     0.172 HD
HETATM   14  O   UNK N   1      51.249  53.847  53.196  0.00  0.00    -0.246 OA
HETATM   15  N   UNK N   1      51.067  55.678  54.530  0.00  0.00    -0.268 N 
HETATM   16  C   UNK N   1      50.466  55.879  55.712  0.00  0.00     0.296 A 
HETATM   17  C   UNK N   1      51.809  56.638  53.740  0.00  0.00     0.165 C 
HETATM   18  O   UNK N   1      50.447  56.932  56.328  0.00  0.00    -0.264 OA
ENDBRANCH   1  10
BRANCH   5  19
HETATM   19  C   UNK N   1      49.006  51.569  61.344  0.00  0.00     0.098 C 
BRANCH  19  20
HETATM   20  C   UNK N   1      47.607  51.040  61.199  0.00  0.00    -0.052 A 
HETATM   21  C   UNK N   1      47.365  49.775  60.644  0.00  0.00     0.010 A 
HETATM   22  C   UNK N   1      46.054  49.291  60.541  0.00  0.00     0.037 A 
HETATM   23  C   UNK N   1      44.972  50.065  61.015  0.00  0.00     0.068 A 
HETATM   24  C   UNK N   1      45.224  51.323  61.571  0.00  0.00     0.037 A 
HETATM   25  C   UNK N   1      46.526  51.812  61.654  0.00  0.00     0.010 A 
BRANCH  23  26
HETATM   26  O   UNK N   1      43.685  49.634  60.957  0.00  0.00    -0.356 OA
HETATM   27  C   UNK N   1      42.572  50.419  61.170  0.00  0.00     0.210 C 
ENDBRANCH  23  26
ENDBRANCH  19  20
ENDBRANCH   5  19
BRANCH   6  28
HETATM   28  C   UNK N   1      51.580  50.768  59.645  0.00  0.00     0.098 C 
BRANCH  28  29
HETATM   29  C   UNK N   1      51.487  49.615  58.678  0.00  0.00    -0.052 A 
HETATM   30  C   UNK N   1      50.672  48.509  58.970  0.00  0.00     0.010 A 
HETATM   31  C   UNK N   1      50.533  47.470  58.044  0.00  0.00     0.037 A 
HETATM   32  C   UNK N   1      51.209  47.528  56.806  0.00  0.00     0.068 A 
HETATM   33  C   UNK N   1      52.021  48.633  56.523  0.00  0.00     0.037 A 
HETATM   34  C   UNK N   1      52.159  49.671  57.450  0.00  0.00     0.010 A 
BRANCH  32  35
HETATM   35  O   UNK N   1      51.096  46.550  55.868  0.00  0.00    -0.356 OA
HETATM   36  C   UNK N   1      50.027  46.391  55.010  0.00  0.00     0.210 C 
ENDBRANCH  32  35
ENDBRANCH  28  29
ENDBRANCH   6  28
TORSDOF 7
ENDMDL
MODEL 8
REMARK VINA RESULT:      -5.9     14.933     17.270
REMARK  7 active torsions:
REMARK  status: ('A' for Active; 'I' for Inactive)
REMARK    1  A    between atoms: C_5  and  N_6 
REMARK       I    between atoms: N_6  and  C_7 
REMARK    2  A    between atoms: C_10  and  C_11 
REMARK    3  A    between atoms: C_11  and  C_12 
REMARK    4  A    between atoms: C_15  and  O_16 
REMARK    5  A    between atoms: C_20  and  C_23 
REMARK    6  A    between atoms: C_23  and  C_24 
REMARK    7  A    between atoms: C_27  and  O_28 
ROOT
HETATM    1  N   UNK N   1      50.524  52.658  55.971  0.00  0.00    -0.171 N 
HETATM    2  C   UNK N   1      50.324  52.726  57.383  0.00  0.00     0.684 A 
HETATM    3  N   UNK N   1      50.139  51.626  58.151  0.00  0.00    -0.193 N 
ATOM      4  HN  UNK N   1      50.119  50.652  57.850  1.00  0.00     0.184 HD
HETATM    5  C   UNK N   1      49.988  52.107  59.405  0.00  0.00     0.054 A 
HETATM    6  C   UNK N   1      50.104  53.485  59.379  0.00  0.00     0.054 A 
HETATM    7  N   UNK N   1      50.310  53.864  58.108  0.00  0.00    -0.193 N 
HETATM    8  H   UNK N   1      50.440  54.843  57.790  0.00  0.00     0.184 HD
HETATM    9  H   UNK N   1      50.526  51.727  55.530  0.00  0.00     0.186 HD
ENDROOT
BRANCH   1  10
HETATM   10  C   UNK N   1      50.723  53.797  55.129  0.00  0.00     0.194 A 
HETATM   11  N   UNK N   1      49.857  54.277  54.305  0.00  0.00    -0.289 N 
HETATM   12  C   UNK N   1      50.422  55.346  53.695  0.00  0.00     0.330 A 
ATOM     13  HN  UNK N   1      48.916  53.917  54.141  1.00  0.00     0.172 HD
HETATM   14  O   UNK N   1      49.854  56.024  52.854  0.00  0.00    -0.246 OA
HETATM   15  N   UNK N   1      51.679  55.568  54.130  0.00  0.00    -0.268 N 
HETATM   16  C   UNK N   1      51.928  54.617  55.042  0.00  0.00     0.296 A 
HETATM   17  C   UNK N   1      52.565  56.624  53.686  0.00  0.00     0.165 C 
HETATM   18  O   UNK N   1      52.972  54.486  55.662  0.00  0.00    -0.264 OA
ENDBRANCH   1  10
BRANCH   5  19
HETATM   19  C   UNK N   1      49.788  51.259  60.625  0.00  0.00     0.098 C 
BRANCH  19  20
HETATM   20  C   UNK N   1      48.372  50.755  60.658  0.00  0.00    -0.052 A 
HETATM   21  C   UNK N   1      48.054  49.461  60.218  0.00  0.00     0.010 A 
HETATM   22  C   UNK N   1      46.733  49.002  60.280  0.00  0.00     0.037 A 
HETATM   23  C   UNK N   1      45.716  49.831  60.804  0.00  0.00     0.068 A 
HETATM   24  C   UNK N   1      46.044  51.117  61.243  0.00  0.00     0.037 A 
HETATM   25  C   UNK N   1      47.356  51.580  61.162  0.00  0.00     0.010 A 
BRANCH  23  26
HETATM   26  O   UNK N   1      44.423  49.427  60.904  0.00  0.00    -0.356 OA
HETATM   27  C   UNK N   1      43.358  50.240  61.229  0.00  0.00     0.210 C 
ENDBRANCH  23  26
ENDBRANCH  19  20
ENDBRANCH   5  19
BRANCH   6  28
HETATM   28  C   UNK N   1      50.059  54.432  60.557  0.00  0.00     0.098 C 
BRANCH  28  29
HETATM   29  C   UNK N   1      48.642  54.848  60.863  0.00  0.00    -0.052 A 
HETATM   30  C   UNK N   1      47.729  55.073  59.820  0.00  0.00     0.010 A 
HETATM   31  C   UNK N   1      46.398  55.394  60.104  0.00  0.00     0.037 A 
HETATM   32  C   UNK N   1      45.961  55.490  61.443  0.00  0.00     0.068 A 
HETATM   33  C   UNK N   1      46.878  55.265  62.478  0.00  0.00     0.037 A 
HETATM   34  C   UNK N   1      48.208  54.944  62.192  0.00  0.00     0.010 A 
BRANCH  32  35
HETATM   35  O   UNK N   1      44.674  55.785  61.770  0.00  0.00    -0.356 OA
HETATM   36  C   UNK N   1      43.899  56.750  61.159  0.00  0.00     0.210 C 
ENDBRANCH  32  35
ENDBRANCH  28  29
ENDBRANCH   6  28
TORSDOF 7
ENDMDL
MODEL 9
REMARK VINA RESULT:      -5.8     15.380     17.238
REMARK  7 active torsions:
REMARK  status: ('A' for Active; 'I' for Inactive)
REMARK    1  A    between atoms: C_5  and  N_6 
REMARK       I    between atoms: N_6  and  C_7 
REMARK    2  A    between atoms: C_10  and  C_11 
REMARK    3  A    between atoms: C_11  and  C_12 
REMARK    4  A    between atoms: C_15  and  O_16 
REMARK    5  A    between atoms: C_20  and  C_23 
REMARK    6  A    between atoms: C_23  and  C_24 
REMARK    7  A    between atoms: C_27  and  O_28 
ROOT
HETATM    1  N   UNK N   1      51.169  51.431  56.504  0.00  0.00    -0.171 N 
HETATM    2  C   UNK N   1      50.879  51.426  57.903  0.00  0.00     0.684 A 
HETATM    3  N   UNK N   1      50.762  50.287  58.624  0.00  0.00    -0.193 N 
ATOM      4  HN  UNK N   1      50.860  49.327  58.293  1.00  0.00     0.184 HD
HETATM    5  C   UNK N   1      50.488  50.704  59.879  0.00  0.00     0.054 A 
HETATM    6  C   UNK N   1      50.464  52.087  59.902  0.00  0.00     0.054 A 
HETATM    7  N   UNK N   1      50.705  52.531  58.659  0.00  0.00    -0.193 N 
HETATM    8  H   UNK N   1      50.753  53.528  58.380  0.00  0.00     0.184 HD
HETATM    9  H   UNK N   1      51.293  50.521  56.036  0.00  0.00     0.186 HD
ENDROOT
BRANCH   1  10
HETATM   10  C   UNK N   1      51.301  52.614  55.711  0.00  0.00     0.194 A 
HETATM   11  N   UNK N   1      52.280  52.875  54.916  0.00  0.00    -0.289 N 
HETATM   12  C   UNK N   1      52.040  54.084  54.356  0.00  0.00     0.330 A 
ATOM     13  HN  UNK N   1      53.089  52.279  54.740  1.00  0.00     0.172 HD
HETATM   14  O   UNK N   1      52.786  54.618  53.551  0.00  0.00    -0.246 OA
HETATM   15  N   UNK N   1      50.882  54.621  54.793  0.00  0.00    -0.268 N 
HETATM   16  C   UNK N   1      50.366  53.734  55.656  0.00  0.00     0.296 A 
HETATM   17  C   UNK N   1      50.329  55.899  54.399  0.00  0.00     0.165 C 
HETATM   18  O   UNK N   1      49.316  53.867  56.266  0.00  0.00    -0.264 OA
ENDBRANCH   1  10
BRANCH   5  19
HETATM   19  C   UNK N   1      50.303  49.796  61.059  0.00  0.00     0.098 C 
BRANCH  19  20
HETATM   20  C   UNK N   1      48.838  49.670  61.368  0.00  0.00    -0.052 A 
HETATM   21  C   UNK N   1      48.379  49.623  62.693  0.00  0.00     0.010 A 
HETATM   22  C   UNK N   1      47.007  49.531  62.959  0.00  0.00     0.037 A 
HETATM   23  C   UNK N   1      46.077  49.505  61.896  0.00  0.00     0.068 A 
HETATM   24  C   UNK N   1      46.544  49.557  60.579  0.00  0.00     0.037 A 
HETATM   25  C   UNK N   1      47.910  49.628  60.316  0.00  0.00     0.010 A 
BRANCH  23  26
HETATM   26  O   UNK N   1      44.735  49.436  62.100  0.00  0.00    -0.356 OA
HETATM   27  C   UNK N   1      43.776  50.003  61.289  0.00  0.00     0.210 C 
ENDBRANCH  23  26
ENDBRANCH  19  20
ENDBRANCH   5  19
BRANCH   6  28
HETATM   28  C   UNK N   1      50.251  52.981  61.103  0.00  0.00     0.098 C 
BRANCH  28  29
HETATM   29  C   UNK N   1      48.783  53.135  61.410  0.00  0.00    -0.052 A 
HETATM   30  C   UNK N   1      47.843  53.194  60.369  0.00  0.00     0.010 A 
HETATM   31  C   UNK N   1      46.476  53.269  60.655  0.00  0.00     0.037 A 
HETATM   32  C   UNK N   1      46.031  53.282  61.994  0.00  0.00     0.068 A 
HETATM   33  C   UNK N   1      46.974  53.223  63.028  0.00  0.00     0.037 A 
HETATM   34  C   UNK N   1      48.341  53.148  62.740  0.00  0.00     0.010 A 
BRANCH  32  35
HETATM   35  O   UNK N   1      44.713  53.340  62.323  0.00  0.00    -0.356 OA
HETATM   36  C   UNK N   1      44.175  52.937  63.528  0.00  0.00     0.210 C 
ENDBRANCH  32  35
ENDBRANCH  28  29
ENDBRANCH   6  28
TORSDOF 7
ENDMDL
