MODEL 1
REMARK VINA RESULT:      -6.8      0.000      0.000
REMARK  7 active torsions:
REMARK  status: ('A' for Active; 'I' for Inactive)
REMARK    1  A    between atoms: C_5  and  N_6 
REMARK       I    between atoms: N_6  and  C_7 
REMARK    2  A    between atoms: C_10  and  C_11 
REMARK    3  A    between atoms: C_11  and  C_12 
REMARK    4  A    between atoms: C_15  and  O_16 
REMARK    5  A    between atoms: C_20  and  C_23 
REMARK    6  A    between atoms: C_23  and  C_24 
REMARK    7  A    between atoms: C_27  and  O_28 
ROOT
HETATM    1  N   UNK N   1      25.636  52.162  40.511  0.00  0.00    -0.171 N 
HETATM    2  C   UNK N   1      26.967  52.668  40.540  0.00  0.00     0.686 A 
HETATM    3  N   UNK N   1      28.066  51.958  40.206  0.00  0.00    -0.193 N 
ATOM      4  HN  UNK N   1      28.110  50.983  39.909  1.00  0.00     0.184 HD
HETATM    5  C   UNK N   1      29.096  52.824  40.352  0.00  0.00     0.054 A 
HETATM    6  C   UNK N   1      28.604  54.047  40.779  0.00  0.00     0.056 A 
HETATM    7  N   UNK N   1      27.264  53.939  40.892  0.00  0.00    -0.189 N 
HETATM    8  C   UNK N   1      26.301  54.961  41.304  0.00  0.00     0.175 C 
HETATM    9  H   UNK N   1      24.872  52.780  40.815  0.00  0.00     0.186 HD
ENDROOT
BRANCH   1  10
HETATM   10  C   UNK N   1      25.275  50.866  40.051  0.00  0.00     0.194 A 
HETATM   11  N   UNK N   1      24.648  49.967  40.732  0.00  0.00    -0.289 N 
HETATM   12  C   UNK N   1      24.527  48.876  39.925  0.00  0.00     0.330 A 
ATOM     13  HN  UNK N   1      24.309  50.055  41.690  1.00  0.00     0.172 HD
HETATM   14  O   UNK N   1      23.980  47.839  40.264  0.00  0.00    -0.246 OA
HETATM   15  N   UNK N   1      25.084  49.079  38.710  0.00  0.00    -0.268 N 
HETATM   16  C   UNK N   1      25.574  50.323  38.734  0.00  0.00     0.296 A 
HETATM   17  C   UNK N   1      25.142  48.141  37.606  0.00  0.00     0.165 C 
HETATM   18  O   UNK N   1      26.160  50.873  37.814  0.00  0.00    -0.264 OA
ENDBRANCH   1  10
BRANCH   5  19
HETATM   19  C   UNK N   1      30.513  52.485  39.970  0.00  0.00     0.098 C 
BRANCH  19  20
HETATM   20  C   UNK N   1      31.098  51.482  40.942  0.00  0.00    -0.052 A 
HETATM   21  C   UNK N   1      30.932  50.097  40.763  0.00  0.00     0.010 A 
HETATM   22  C   UNK N   1      31.526  49.193  41.660  0.00  0.00     0.037 A 
HETATM   23  C   UNK N   1      32.284  49.669  42.752  0.00  0.00     0.068 A 
HETATM   24  C   UNK N   1      32.432  51.046  42.930  0.00  0.00     0.037 A 
HETATM   25  C   UNK N   1      31.854  51.943  42.034  0.00  0.00     0.010 A 
BRANCH  23  26
HETATM   26  O   UNK N   1      32.892  48.840  43.643  0.00  0.00    -0.356 OA
HETATM   27  C   UNK N   1      34.128  48.253  43.481  0.00  0.00     0.210 C 
ENDBRANCH  23  26
ENDBRANCH  19  20
ENDBRANCH   5  19
BRANCH   6  28
HETATM   28  C   UNK N   1      29.398  55.295  41.078  0.00  0.00     0.098 C 
BRANCH  28  29
HETATM   29  C   UNK N   1      30.335  55.184  42.260  0.00  0.00    -0.052 A 
HETATM   30  C   UNK N   1      29.824  54.705  43.478  0.00  0.00     0.010 A 
HETATM   31  C   UNK N   1      30.662  54.547  44.585  0.00  0.00     0.037 A 
HETATM   32  C   UNK N   1      32.023  54.852  44.486  0.00  0.00     0.065 A 
HETATM   33  C   UNK N   1      32.541  55.331  43.277  0.00  0.00     0.037 A 
HETATM   34  C   UNK N   1      31.706  55.503  42.171  0.00  0.00     0.010 A 
BRANCH  32  35
HETATM   35  O   UNK N   1      32.824  54.676  45.556  0.00  0.00    -0.361 OA
HETATM   36  H   UNK N   1      32.548  54.141  46.314  0.00  0.00     0.217 HD
ENDBRANCH  32  35
ENDBRANCH  28  29
ENDBRANCH   6  28
TORSDOF 7
ENDMDL
MODEL 2
REMARK VINA RESULT:      -6.7     10.548     15.394
REMARK  7 active torsions:
REMARK  status: ('A' for Active; 'I' for Inactive)
REMARK    1  A    between atoms: C_5  and  N_6 
REMARK       I    between atoms: N_6  and  C_7 
REMARK    2  A    between atoms: C_10  and  C_11 
REMARK    3  A    between atoms: C_11  and  C_12 
REMARK    4  A    between atoms: C_15  and  O_16 
REMARK    5  A    between atoms: C_20  and  C_23 
REMARK    6  A    between atoms: C_23  and  C_24 
REMARK    7  A    between atoms: C_27  and  O_28 
ROOT
HETATM    1  N   UNK N   1      40.342  48.691  45.944  0.00  0.00    -0.171 N 
HETATM    2  C   UNK N   1      40.636  47.382  46.420  0.00  0.00     0.686 A 
HETATM    3  N   UNK N   1      40.118  46.244  45.909  0.00  0.00    -0.193 N 
ATOM      4  HN  UNK N   1      39.449  46.155  45.144  1.00  0.00     0.184 HD
HETATM    5  C   UNK N   1      40.680  45.250  46.635  0.00  0.00     0.054 A 
HETATM    6  C   UNK N   1      41.529  45.803  47.582  0.00  0.00     0.056 A 
HETATM    7  N   UNK N   1      41.495  47.143  47.436  0.00  0.00    -0.189 N 
HETATM    8  C   UNK N   1      42.223  48.159  48.197  0.00  0.00     0.175 C 
HETATM    9  H   UNK N   1      40.770  49.494  46.425  0.00  0.00     0.186 HD
ENDROOT
BRANCH   1  10
HETATM   10  C   UNK N   1      39.525  48.975  44.815  0.00  0.00     0.194 A 
HETATM   11  N   UNK N   1      38.485  48.307  44.444  0.00  0.00    -0.289 N 
HETATM   12  C   UNK N   1      38.018  48.903  43.312  0.00  0.00     0.330 A 
ATOM     13  HN  UNK N   1      38.091  47.489  44.908  1.00  0.00     0.172 HD
HETATM   14  O   UNK N   1      37.037  48.516  42.697  0.00  0.00    -0.246 OA
HETATM   15  N   UNK N   1      38.768  49.969  42.952  0.00  0.00    -0.268 N 
HETATM   16  C   UNK N   1      39.738  50.061  43.870  0.00  0.00     0.296 A 
HETATM   17  C   UNK N   1      38.567  50.835  41.808  0.00  0.00     0.165 C 
HETATM   18  O   UNK N   1      40.622  50.903  43.884  0.00  0.00    -0.264 OA
ENDBRANCH   1  10
BRANCH   5  19
HETATM   19  C   UNK N   1      40.472  43.791  46.327  0.00  0.00     0.098 C 
BRANCH  19  20
HETATM   20  C   UNK N   1      41.771  43.151  45.884  0.00  0.00    -0.052 A 
HETATM   21  C   UNK N   1      42.347  42.083  46.595  0.00  0.00     0.010 A 
HETATM   22  C   UNK N   1      43.531  41.484  46.131  0.00  0.00     0.037 A 
HETATM   23  C   UNK N   1      44.154  41.957  44.955  0.00  0.00     0.068 A 
HETATM   24  C   UNK N   1      43.582  43.027  44.264  0.00  0.00     0.037 A 
HETATM   25  C   UNK N   1      42.402  43.613  44.717  0.00  0.00     0.010 A 
BRANCH  23  26
HETATM   26  O   UNK N   1      45.293  41.406  44.454  0.00  0.00    -0.356 OA
HETATM   27  C   UNK N   1      45.439  40.872  43.191  0.00  0.00     0.210 C 
ENDBRANCH  23  26
ENDBRANCH  19  20
ENDBRANCH   5  19
BRANCH   6  28
HETATM   28  C   UNK N   1      42.353  45.065  48.609  0.00  0.00     0.098 C 
BRANCH  28  29
HETATM   29  C   UNK N   1      41.651  44.814  49.925  0.00  0.00    -0.052 A 
HETATM   30  C   UNK N   1      40.611  43.870  49.961  0.00  0.00     0.010 A 
HETATM   31  C   UNK N   1      39.962  43.577  51.164  0.00  0.00     0.037 A 
HETATM   32  C   UNK N   1      40.351  44.213  52.346  0.00  0.00     0.065 A 
HETATM   33  C   UNK N   1      41.385  45.156  52.320  0.00  0.00     0.037 A 
HETATM   34  C   UNK N   1      42.029  45.462  51.119  0.00  0.00     0.010 A 
BRANCH  32  35
HETATM   35  O   UNK N   1      39.730  43.905  53.502  0.00  0.00    -0.361 OA
HETATM   36  H   UNK N   1      38.816  44.172  53.675  0.00  0.00     0.217 HD
ENDBRANCH  32  35
ENDBRANCH  28  29
ENDBRANCH   6  28
TORSDOF 7
ENDMDL
MODEL 3
REMARK VINA RESULT:      -5.7     15.152     17.648
REMARK  7 active torsions:
REMARK  status: ('A' for Active; 'I' for Inactive)
REMARK    1  A    between atoms: C_5  and  N_6 
REMARK       I    between atoms: N_6  and  C_7 
REMARK    2  A    between atoms: C_10  and  C_11 
REMARK    3  A    between atoms: C_11  and  C_12 
REMARK    4  A    between atoms: C_15  and  O_16 
REMARK    5  A    between atoms: C_20  and  C_23 
REMARK    6  A    between atoms: C_23  and  C_24 
REMARK    7  A    between atoms: C_27  and  O_28 
ROOT
HETATM    1  N   UNK N   1      28.076  41.847  54.121  0.00  0.00    -0.171 N 
HETATM    2  C   UNK N   1      28.302  42.248  55.469  0.00  0.00     0.686 A 
HETATM    3  N   UNK N   1      27.841  43.392  56.017  0.00  0.00    -0.193 N 
ATOM      4  HN  UNK N   1      27.295  44.124  55.561  1.00  0.00     0.184 HD
HETATM    5  C   UNK N   1      28.262  43.356  57.302  0.00  0.00     0.054 A 
HETATM    6  C   UNK N   1      28.979  42.189  57.512  0.00  0.00     0.056 A 
HETATM    7  N   UNK N   1      28.996  41.498  56.354  0.00  0.00    -0.189 N 
HETATM    8  C   UNK N   1      29.623  40.205  56.074  0.00  0.00     0.175 C 
HETATM    9  H   UNK N   1      28.499  40.966  53.796  0.00  0.00     0.186 HD
ENDROOT
BRANCH   1  10
HETATM   10  C   UNK N   1      27.267  42.557  53.191  0.00  0.00     0.194 A 
HETATM   11  N   UNK N   1      26.707  43.702  53.394  0.00  0.00    -0.289 N 
HETATM   12  C   UNK N   1      26.014  44.005  52.262  0.00  0.00     0.330 A 
ATOM     13  HN  UNK N   1      26.770  44.269  54.239  1.00  0.00     0.172 HD
HETATM   14  O   UNK N   1      25.363  45.028  52.119  0.00  0.00    -0.246 OA
HETATM   15  N   UNK N   1      26.131  43.042  51.320  0.00  0.00    -0.268 N 
HETATM   16  C   UNK N   1      26.914  42.099  51.856  0.00  0.00     0.296 A 
HETATM   17  C   UNK N   1      25.531  43.030  50.001  0.00  0.00     0.165 C 
HETATM   18  O   UNK N   1      27.250  41.061  51.307  0.00  0.00    -0.264 OA
ENDBRANCH   1  10
BRANCH   5  19
HETATM   19  C   UNK N   1      27.870  44.390  58.324  0.00  0.00     0.098 C 
BRANCH  19  20
HETATM   20  C   UNK N   1      28.592  45.695  58.061  0.00  0.00    -0.052 A 
HETATM   21  C   UNK N   1      29.993  45.752  57.946  0.00  0.00     0.010 A 
HETATM   22  C   UNK N   1      30.628  46.972  57.659  0.00  0.00     0.037 A 
HETATM   23  C   UNK N   1      29.866  48.150  57.494  0.00  0.00     0.068 A 
HETATM   24  C   UNK N   1      28.477  48.086  57.625  0.00  0.00     0.037 A 
HETATM   25  C   UNK N   1      27.845  46.874  57.897  0.00  0.00     0.010 A 
BRANCH  23  26
HETATM   26  O   UNK N   1      30.426  49.355  57.202  0.00  0.00    -0.356 OA
HETATM   27  C   UNK N   1      30.864  49.757  55.959  0.00  0.00     0.210 C 
ENDBRANCH  23  26
ENDBRANCH  19  20
ENDBRANCH   5  19
BRANCH   6  28
HETATM   28  C   UNK N   1      29.640  41.743  58.794  0.00  0.00     0.098 C 
BRANCH  28  29
HETATM   29  C   UNK N   1      31.106  42.098  58.909  0.00  0.00    -0.052 A 
HETATM   30  C   UNK N   1      31.673  42.930  57.929  0.00  0.00     0.010 A 
HETATM   31  C   UNK N   1      33.014  43.316  58.019  0.00  0.00     0.037 A 
HETATM   32  C   UNK N   1      33.799  42.889  59.094  0.00  0.00     0.065 A 
HETATM   33  C   UNK N   1      33.242  42.059  60.074  0.00  0.00     0.037 A 
HETATM   34  C   UNK N   1      31.907  41.659  59.983  0.00  0.00     0.010 A 
BRANCH  32  35
HETATM   35  O   UNK N   1      35.084  43.287  59.178  0.00  0.00    -0.361 OA
HETATM   36  H   UNK N   1      35.813  42.650  59.193  0.00  0.00     0.217 HD
ENDBRANCH  32  35
ENDBRANCH  28  29
ENDBRANCH   6  28
TORSDOF 7
ENDMDL
MODEL 4
REMARK VINA RESULT:      -5.4      3.614      6.763
REMARK  7 active torsions:
REMARK  status: ('A' for Active; 'I' for Inactive)
REMARK    1  A    between atoms: C_5  and  N_6 
REMARK       I    between atoms: N_6  and  C_7 
REMARK    2  A    between atoms: C_10  and  C_11 
REMARK    3  A    between atoms: C_11  and  C_12 
REMARK    4  A    between atoms: C_15  and  O_16 
REMARK    5  A    between atoms: C_20  and  C_23 
REMARK    6  A    between atoms: C_23  and  C_24 
REMARK    7  A    between atoms: C_27  and  O_28 
ROOT
HETATM    1  N   UNK N   1      30.334  51.958  40.080  0.00  0.00    -0.171 N 
HETATM    2  C   UNK N   1      30.990  51.428  41.228  0.00  0.00     0.686 A 
HETATM    3  N   UNK N   1      31.183  52.103  42.382  0.00  0.00    -0.193 N 
ATOM      4  HN  UNK N   1      30.913  53.064  42.592  1.00  0.00     0.184 HD
HETATM    5  C   UNK N   1      31.813  51.225  43.196  0.00  0.00     0.054 A 
HETATM    6  C   UNK N   1      31.997  50.030  42.519  0.00  0.00     0.056 A 
HETATM    7  N   UNK N   1      31.474  50.167  41.284  0.00  0.00    -0.189 N 
HETATM    8  C   UNK N   1      31.421  49.182  40.203  0.00  0.00     0.175 C 
HETATM    9  H   UNK N   1      30.267  51.367  39.240  0.00  0.00     0.186 HD
ENDROOT
BRANCH   1  10
HETATM   10  C   UNK N   1      29.723  53.241  40.019  0.00  0.00     0.194 A 
HETATM   11  N   UNK N   1      28.550  53.544  40.462  0.00  0.00    -0.289 N 
HETATM   12  C   UNK N   1      28.353  54.862  40.183  0.00  0.00     0.330 A 
ATOM     13  HN  UNK N   1      27.896  52.916  40.929  1.00  0.00     0.172 HD
HETATM   14  O   UNK N   1      27.335  55.471  40.470  0.00  0.00    -0.246 OA
HETATM   15  N   UNK N   1      29.415  55.412  39.552  0.00  0.00    -0.268 N 
HETATM   16  C   UNK N   1      30.313  54.429  39.421  0.00  0.00     0.296 A 
HETATM   17  C   UNK N   1      29.554  56.784  39.107  0.00  0.00     0.165 C 
HETATM   18  O   UNK N   1      31.410  54.537  38.894  0.00  0.00    -0.264 OA
ENDBRANCH   1  10
BRANCH   5  19
HETATM   19  C   UNK N   1      32.121  51.521  44.640  0.00  0.00     0.098 C 
BRANCH  19  20
HETATM   20  C   UNK N   1      32.623  52.942  44.794  0.00  0.00    -0.052 A 
HETATM   21  C   UNK N   1      33.898  53.327  44.341  0.00  0.00     0.010 A 
HETATM   22  C   UNK N   1      34.315  54.664  44.461  0.00  0.00     0.037 A 
HETATM   23  C   UNK N   1      33.461  55.626  45.045  0.00  0.00     0.068 A 
HETATM   24  C   UNK N   1      32.203  55.231  45.503  0.00  0.00     0.037 A 
HETATM   25  C   UNK N   1      31.784  53.908  45.374  0.00  0.00     0.010 A 
BRANCH  23  26
HETATM   26  O   UNK N   1      33.807  56.935  45.173  0.00  0.00    -0.356 OA
HETATM   27  C   UNK N   1      34.514  57.480  46.223  0.00  0.00     0.210 C 
ENDBRANCH  23  26
ENDBRANCH  19  20
ENDBRANCH   5  19
BRANCH   6  28
HETATM   28  C   UNK N   1      32.664  48.780  43.041  0.00  0.00     0.098 C 
BRANCH  28  29
HETATM   29  C   UNK N   1      34.176  48.822  43.045  0.00  0.00    -0.052 A 
HETATM   30  C   UNK N   1      34.882  47.611  42.953  0.00  0.00     0.010 A 
HETATM   31  C   UNK N   1      36.279  47.606  42.913  0.00  0.00     0.037 A 
HETATM   32  C   UNK N   1      36.988  48.810  42.951  0.00  0.00     0.065 A 
HETATM   33  C   UNK N   1      36.294  50.022  43.045  0.00  0.00     0.037 A 
HETATM   34  C   UNK N   1      34.898  50.032  43.098  0.00  0.00     0.010 A 
BRANCH  32  35
HETATM   35  O   UNK N   1      38.334  48.791  42.891  0.00  0.00    -0.361 OA
HETATM   36  H   UNK N   1      38.874  49.425  43.385  0.00  0.00     0.217 HD
ENDBRANCH  32  35
ENDBRANCH  28  29
ENDBRANCH   6  28
TORSDOF 7
ENDMDL
MODEL 5
REMARK VINA RESULT:      -5.2     16.778     19.320
REMARK  7 active torsions:
REMARK  status: ('A' for Active; 'I' for Inactive)
REMARK    1  A    between atoms: C_5  and  N_6 
REMARK       I    between atoms: N_6  and  C_7 
REMARK    2  A    between atoms: C_10  and  C_11 
REMARK    3  A    between atoms: C_11  and  C_12 
REMARK    4  A    between atoms: C_15  and  O_16 
REMARK    5  A    between atoms: C_20  and  C_23 
REMARK    6  A    between atoms: C_23  and  C_24 
REMARK    7  A    between atoms: C_27  and  O_28 
ROOT
HETATM    1  N   UNK N   1      28.374  41.337  56.240  0.00  0.00    -0.171 N 
HETATM    2  C   UNK N   1      29.452  41.764  57.068  0.00  0.00     0.686 A 
HETATM    3  N   UNK N   1      30.155  42.904  56.887  0.00  0.00    -0.193 N 
ATOM      4  HN  UNK N   1      30.035  43.597  56.147  1.00  0.00     0.184 HD
HETATM    5  C   UNK N   1      31.051  42.923  57.900  0.00  0.00     0.054 A 
HETATM    6  C   UNK N   1      30.881  41.789  58.678  0.00  0.00     0.056 A 
HETATM    7  N   UNK N   1      29.872  41.069  58.148  0.00  0.00    -0.189 N 
HETATM    8  C   UNK N   1      29.317  39.798  58.615  0.00  0.00     0.175 C 
HETATM    9  H   UNK N   1      27.925  40.435  56.450  0.00  0.00     0.186 HD
ENDROOT
BRANCH   1  10
HETATM   10  C   UNK N   1      27.839  42.090  55.159  0.00  0.00     0.194 A 
HETATM   11  N   UNK N   1      26.748  42.778  55.180  0.00  0.00    -0.289 N 
HETATM   12  C   UNK N   1      26.599  43.318  53.939  0.00  0.00     0.330 A 
ATOM     13  HN  UNK N   1      26.118  42.894  55.974  1.00  0.00     0.172 HD
HETATM   14  O   UNK N   1      25.661  44.030  53.617  0.00  0.00    -0.246 OA
HETATM   15  N   UNK N   1      27.608  42.971  53.110  0.00  0.00    -0.268 N 
HETATM   16  C   UNK N   1      28.424  42.192  53.830  0.00  0.00     0.296 A 
HETATM   17  C   UNK N   1      27.776  43.361  51.724  0.00  0.00     0.165 C 
HETATM   18  O   UNK N   1      29.453  41.676  53.423  0.00  0.00    -0.264 OA
ENDBRANCH   1  10
BRANCH   5  19
HETATM   19  C   UNK N   1      31.973  44.086  58.157  0.00  0.00     0.098 C 
BRANCH  19  20
HETATM   20  C   UNK N   1      31.176  45.344  58.431  0.00  0.00    -0.052 A 
HETATM   21  C   UNK N   1      31.019  46.345  57.455  0.00  0.00     0.010 A 
HETATM   22  C   UNK N   1      30.237  47.480  57.727  0.00  0.00     0.037 A 
HETATM   23  C   UNK N   1      29.612  47.628  58.985  0.00  0.00     0.068 A 
HETATM   24  C   UNK N   1      29.785  46.636  59.952  0.00  0.00     0.037 A 
HETATM   25  C   UNK N   1      30.551  45.504  59.679  0.00  0.00     0.010 A 
BRANCH  23  26
HETATM   26  O   UNK N   1      28.833  48.698  59.298  0.00  0.00    -0.356 OA
HETATM   27  C   UNK N   1      29.170  50.021  59.108  0.00  0.00     0.210 C 
ENDBRANCH  23  26
ENDBRANCH  19  20
ENDBRANCH   5  19
BRANCH   6  28
HETATM   28  C   UNK N   1      31.671  41.398  59.904  0.00  0.00     0.098 C 
BRANCH  28  29
HETATM   29  C   UNK N   1      31.443  42.277  61.113  0.00  0.00    -0.052 A 
HETATM   30  C   UNK N   1      32.535  42.983  61.645  0.00  0.00     0.010 A 
HETATM   31  C   UNK N   1      32.362  43.839  62.737  0.00  0.00     0.037 A 
HETATM   32  C   UNK N   1      31.096  44.010  63.302  0.00  0.00     0.065 A 
HETATM   33  C   UNK N   1      30.001  43.310  62.780  0.00  0.00     0.037 A 
HETATM   34  C   UNK N   1      30.170  42.444  61.698  0.00  0.00     0.010 A 
BRANCH  32  35
HETATM   35  O   UNK N   1      30.939  44.854  64.341  0.00  0.00    -0.361 OA
HETATM   36  H   UNK N   1      30.687  45.780  64.211  0.00  0.00     0.217 HD
ENDBRANCH  32  35
ENDBRANCH  28  29
ENDBRANCH   6  28
TORSDOF 7
ENDMDL
MODEL 6
REMARK VINA RESULT:      -5.1     16.233     18.755
REMARK  7 active torsions:
REMARK  status: ('A' for Active; 'I' for Inactive)
REMARK    1  A    between atoms: C_5  and  N_6 
REMARK       I    between atoms: N_6  and  C_7 
REMARK    2  A    between atoms: C_10  and  C_11 
REMARK    3  A    between atoms: C_11  and  C_12 
REMARK    4  A    between atoms: C_15  and  O_16 
REMARK    5  A    between atoms: C_20  and  C_23 
REMARK    6  A    between atoms: C_23  and  C_24 
REMARK    7  A    between atoms: C_27  and  O_28 
ROOT
HETATM    1  N   UNK N   1      28.288  41.700  55.944  0.00  0.00    -0.171 N 
HETATM    2  C   UNK N   1      28.700  42.259  57.188  0.00  0.00     0.686 A 
HETATM    3  N   UNK N   1      28.510  43.545  57.552  0.00  0.00    -0.193 N 
ATOM      4  HN  UNK N   1      28.073  44.288  57.006  1.00  0.00     0.184 HD
HETATM    5  C   UNK N   1      29.025  43.632  58.800  0.00  0.00     0.054 A 
HETATM    6  C   UNK N   1      29.527  42.395  59.171  0.00  0.00     0.056 A 
HETATM    7  N   UNK N   1      29.315  41.538  58.151  0.00  0.00    -0.189 N 
HETATM    8  C   UNK N   1      29.663  40.119  58.068  0.00  0.00     0.175 C 
HETATM    9  H   UNK N   1      28.510  40.713  55.755  0.00  0.00     0.186 HD
ENDROOT
BRANCH   1  10
HETATM   10  C   UNK N   1      27.550  42.399  54.950  0.00  0.00     0.194 A 
HETATM   11  N   UNK N   1      28.028  42.897  53.859  0.00  0.00    -0.289 N 
HETATM   12  C   UNK N   1      26.990  43.493  53.211  0.00  0.00     0.330 A 
ATOM     13  HN  UNK N   1      28.997  42.853  53.545  1.00  0.00     0.172 HD
HETATM   14  O   UNK N   1      27.099  44.066  52.139  0.00  0.00    -0.246 OA
HETATM   15  N   UNK N   1      25.829  43.377  53.895  0.00  0.00    -0.268 N 
HETATM   16  C   UNK N   1      26.125  42.693  55.006  0.00  0.00     0.296 A 
HETATM   17  C   UNK N   1      24.529  43.888  53.508  0.00  0.00     0.165 C 
HETATM   18  O   UNK N   1      25.332  42.389  55.884  0.00  0.00    -0.264 OA
ENDBRANCH   1  10
BRANCH   5  19
HETATM   19  C   UNK N   1      28.922  44.874  59.646  0.00  0.00     0.098 C 
BRANCH  19  20
HETATM   20  C   UNK N   1      29.224  46.106  58.817  0.00  0.00    -0.052 A 
HETATM   21  C   UNK N   1      30.469  46.285  58.188  0.00  0.00     0.010 A 
HETATM   22  C   UNK N   1      30.700  47.419  57.391  0.00  0.00     0.037 A 
HETATM   23  C   UNK N   1      29.688  48.390  57.224  0.00  0.00     0.068 A 
HETATM   24  C   UNK N   1      28.460  48.210  57.864  0.00  0.00     0.037 A 
HETATM   25  C   UNK N   1      28.225  47.080  58.645  0.00  0.00     0.010 A 
BRANCH  23  26
HETATM   26  O   UNK N   1      29.852  49.499  56.454  0.00  0.00    -0.356 OA
HETATM   27  C   UNK N   1      31.038  49.921  55.894  0.00  0.00     0.210 C 
ENDBRANCH  23  26
ENDBRANCH  19  20
ENDBRANCH   5  19
BRANCH   6  28
HETATM   28  C   UNK N   1      30.201  42.038  60.474  0.00  0.00     0.098 C 
BRANCH  28  29
HETATM   29  C   UNK N   1      31.652  42.450  60.572  0.00  0.00    -0.052 A 
HETATM   30  C   UNK N   1      32.506  42.161  59.494  0.00  0.00     0.010 A 
HETATM   31  C   UNK N   1      33.845  42.560  59.525  0.00  0.00     0.037 A 
HETATM   32  C   UNK N   1      34.345  43.263  60.625  0.00  0.00     0.065 A 
HETATM   33  C   UNK N   1      33.502  43.554  61.705  0.00  0.00     0.037 A 
HETATM   34  C   UNK N   1      32.167  43.147  61.685  0.00  0.00     0.010 A 
BRANCH  32  35
HETATM   35  O   UNK N   1      35.634  43.659  60.632  0.00  0.00    -0.361 OA
HETATM   36  H   UNK N   1      35.912  44.489  60.220  0.00  0.00     0.217 HD
ENDBRANCH  32  35
ENDBRANCH  28  29
ENDBRANCH   6  28
TORSDOF 7
ENDMDL
MODEL 7
REMARK VINA RESULT:      -5.0     15.789     18.769
REMARK  7 active torsions:
REMARK  status: ('A' for Active; 'I' for Inactive)
REMARK    1  A    between atoms: C_5  and  N_6 
REMARK       I    between atoms: N_6  and  C_7 
REMARK    2  A    between atoms: C_10  and  C_11 
REMARK    3  A    between atoms: C_11  and  C_12 
REMARK    4  A    between atoms: C_15  and  O_16 
REMARK    5  A    between atoms: C_20  and  C_23 
REMARK    6  A    between atoms: C_23  and  C_24 
REMARK    7  A    between atoms: C_27  and  O_28 
ROOT
HETATM    1  N   UNK N   1      30.287  47.282  57.451  0.00  0.00    -0.171 N 
HETATM    2  C   UNK N   1      29.767  46.001  57.791  0.00  0.00     0.686 A 
HETATM    3  N   UNK N   1      28.492  45.765  58.169  0.00  0.00    -0.193 N 
ATOM      4  HN  UNK N   1      27.741  46.447  58.279  1.00  0.00     0.184 HD
HETATM    5  C   UNK N   1      28.431  44.428  58.368  0.00  0.00     0.054 A 
HETATM    6  C   UNK N   1      29.675  43.873  58.113  0.00  0.00     0.056 A 
HETATM    7  N   UNK N   1      30.507  44.870  57.749  0.00  0.00    -0.189 N 
HETATM    8  C   UNK N   1      31.920  44.786  57.377  0.00  0.00     0.175 C 
HETATM    9  H   UNK N   1      31.284  47.355  57.204  0.00  0.00     0.186 HD
ENDROOT
BRANCH   1  10
HETATM   10  C   UNK N   1      29.517  48.476  57.385  0.00  0.00     0.194 A 
HETATM   11  N   UNK N   1      28.936  48.947  56.333  0.00  0.00    -0.289 N 
HETATM   12  C   UNK N   1      28.330  50.107  56.706  0.00  0.00     0.330 A 
ATOM     13  HN  UNK N   1      28.934  48.530  55.402  1.00  0.00     0.172 HD
HETATM   14  O   UNK N   1      27.688  50.813  55.944  0.00  0.00    -0.246 OA
HETATM   15  N   UNK N   1      28.524  50.385  58.015  0.00  0.00    -0.268 N 
HETATM   16  C   UNK N   1      29.271  49.384  58.495  0.00  0.00     0.296 A 
HETATM   17  C   UNK N   1      28.028  51.532  58.750  0.00  0.00     0.165 C 
HETATM   18  O   UNK N   1      29.660  49.280  59.648  0.00  0.00    -0.264 OA
ENDBRANCH   1  10
BRANCH   5  19
HETATM   19  C   UNK N   1      27.150  43.705  58.691  0.00  0.00     0.098 C 
BRANCH  19  20
HETATM   20  C   UNK N   1      26.567  43.076  57.444  0.00  0.00    -0.052 A 
HETATM   21  C   UNK N   1      26.565  43.750  56.209  0.00  0.00     0.010 A 
HETATM   22  C   UNK N   1      26.056  43.119  55.061  0.00  0.00     0.037 A 
HETATM   23  C   UNK N   1      25.533  41.809  55.142  0.00  0.00     0.068 A 
HETATM   24  C   UNK N   1      25.526  41.154  56.375  0.00  0.00     0.037 A 
HETATM   25  C   UNK N   1      26.043  41.774  57.511  0.00  0.00     0.010 A 
BRANCH  23  26
HETATM   26  O   UNK N   1      25.040  41.146  54.062  0.00  0.00    -0.356 OA
HETATM   27  C   UNK N   1      25.614  41.111  52.809  0.00  0.00     0.210 C 
ENDBRANCH  23  26
ENDBRANCH  19  20
ENDBRANCH   5  19
BRANCH   6  28
HETATM   28  C   UNK N   1      30.063  42.419  58.220  0.00  0.00     0.098 C 
BRANCH  28  29
HETATM   29  C   UNK N   1      29.674  41.569  57.030  0.00  0.00    -0.052 A 
HETATM   30  C   UNK N   1      29.230  40.256  57.260  0.00  0.00     0.010 A 
HETATM   31  C   UNK N   1      28.823  39.449  56.194  0.00  0.00     0.037 A 
HETATM   32  C   UNK N   1      28.840  39.948  54.888  0.00  0.00     0.065 A 
HETATM   33  C   UNK N   1      29.283  41.255  54.649  0.00  0.00     0.037 A 
HETATM   34  C   UNK N   1      29.703  42.061  55.709  0.00  0.00     0.010 A 
BRANCH  32  35
HETATM   35  O   UNK N   1      28.425  39.166  53.872  0.00  0.00    -0.361 OA
HETATM   36  H   UNK N   1      28.575  38.209  53.872  0.00  0.00     0.217 HD
ENDBRANCH  32  35
ENDBRANCH  28  29
ENDBRANCH   6  28
TORSDOF 7
ENDMDL
MODEL 8
REMARK VINA RESULT:      -5.0     15.498     18.585
REMARK  7 active torsions:
REMARK  status: ('A' for Active; 'I' for Inactive)
REMARK    1  A    between atoms: C_5  and  N_6 
REMARK       I    between atoms: N_6  and  C_7 
REMARK    2  A    between atoms: C_10  and  C_11 
REMARK    3  A    between atoms: C_11  and  C_12 
REMARK    4  A    between atoms: C_15  and  O_16 
REMARK    5  A    between atoms: C_20  and  C_23 
REMARK    6  A    between atoms: C_23  and  C_24 
REMARK    7  A    between atoms: C_27  and  O_28 
ROOT
HETATM    1  N   UNK N   1      30.849  45.104  57.865  0.00  0.00    -0.171 N 
HETATM    2  C   UNK N   1      30.079  43.965  57.493  0.00  0.00     0.686 A 
HETATM    3  N   UNK N   1      28.810  43.731  57.891  0.00  0.00    -0.193 N 
ATOM      4  HN  UNK N   1      28.237  44.307  58.509  1.00  0.00     0.184 HD
HETATM    5  C   UNK N   1      28.466  42.569  57.290  0.00  0.00     0.054 A 
HETATM    6  C   UNK N   1      29.537  42.111  56.540  0.00  0.00     0.056 A 
HETATM    7  N   UNK N   1      30.545  42.997  56.672  0.00  0.00    -0.189 N 
HETATM    8  C   UNK N   1      31.878  42.956  56.069  0.00  0.00     0.175 C 
HETATM    9  H   UNK N   1      31.819  45.169  57.529  0.00  0.00     0.186 HD
ENDROOT
BRANCH   1  10
HETATM   10  C   UNK N   1      30.359  46.190  58.642  0.00  0.00     0.194 A 
HETATM   11  N   UNK N   1      30.015  46.140  59.884  0.00  0.00    -0.289 N 
HETATM   12  C   UNK N   1      29.588  47.387  60.225  0.00  0.00     0.330 A 
ATOM     13  HN  UNK N   1      30.054  45.322  60.493  1.00  0.00     0.172 HD
HETATM   14  O   UNK N   1      29.188  47.687  61.338  0.00  0.00    -0.246 OA
HETATM   15  N   UNK N   1      29.660  48.250  59.186  0.00  0.00    -0.268 N 
HETATM   16  C   UNK N   1      30.141  47.545  58.156  0.00  0.00     0.296 A 
HETATM   17  C   UNK N   1      29.291  49.652  59.185  0.00  0.00     0.165 C 
HETATM   18  O   UNK N   1      30.346  47.980  57.033  0.00  0.00    -0.264 OA
ENDBRANCH   1  10
BRANCH   5  19
HETATM   19  C   UNK N   1      27.079  41.986  57.365  0.00  0.00     0.098 C 
BRANCH  19  20
HETATM   20  C   UNK N   1      26.329  42.235  56.073  0.00  0.00    -0.052 A 
HETATM   21  C   UNK N   1      26.588  43.363  55.275  0.00  0.00     0.010 A 
HETATM   22  C   UNK N   1      25.905  43.541  54.060  0.00  0.00     0.037 A 
HETATM   23  C   UNK N   1      24.947  42.592  53.638  0.00  0.00     0.068 A 
HETATM   24  C   UNK N   1      24.686  41.482  54.444  0.00  0.00     0.037 A 
HETATM   25  C   UNK N   1      25.373  41.299  55.643  0.00  0.00     0.010 A 
BRANCH  23  26
HETATM   26  O   UNK N   1      24.266  42.706  52.466  0.00  0.00    -0.356 OA
HETATM   27  C   UNK N   1      24.597  43.543  51.422  0.00  0.00     0.210 C 
ENDBRANCH  23  26
ENDBRANCH  19  20
ENDBRANCH   5  19
BRANCH   6  28
HETATM   28  C   UNK N   1      29.599  40.848  55.715  0.00  0.00     0.098 C 
BRANCH  28  29
HETATM   29  C   UNK N   1      29.024  40.972  54.322  0.00  0.00    -0.052 A 
HETATM   30  C   UNK N   1      29.483  42.012  53.496  0.00  0.00     0.010 A 
HETATM   31  C   UNK N   1      29.009  42.139  52.187  0.00  0.00     0.037 A 
HETATM   32  C   UNK N   1      28.082  41.223  51.683  0.00  0.00     0.065 A 
HETATM   33  C   UNK N   1      27.617  40.184  52.499  0.00  0.00     0.037 A 
HETATM   34  C   UNK N   1      28.078  40.059  53.811  0.00  0.00     0.010 A 
BRANCH  32  35
HETATM   35  O   UNK N   1      27.649  41.346  50.412  0.00  0.00    -0.361 OA
HETATM   36  H   UNK N   1      28.249  41.583  49.691  0.00  0.00     0.217 HD
ENDBRANCH  32  35
ENDBRANCH  28  29
ENDBRANCH   6  28
TORSDOF 7
ENDMDL
MODEL 9
REMARK VINA RESULT:      -5.0     12.445     16.771
REMARK  7 active torsions:
REMARK  status: ('A' for Active; 'I' for Inactive)
REMARK    1  A    between atoms: C_5  and  N_6 
REMARK       I    between atoms: N_6  and  C_7 
REMARK    2  A    between atoms: C_10  and  C_11 
REMARK    3  A    between atoms: C_11  and  C_12 
REMARK    4  A    between atoms: C_15  and  O_16 
REMARK    5  A    between atoms: C_20  and  C_23 
REMARK    6  A    between atoms: C_23  and  C_24 
REMARK    7  A    between atoms: C_27  and  O_28 
ROOT
HETATM    1  N   UNK N   1      42.059  46.096  50.922  0.00  0.00    -0.171 N 
HETATM    2  C   UNK N   1      41.940  45.948  49.510  0.00  0.00     0.686 A 
HETATM    3  N   UNK N   1      41.474  44.843  48.890  0.00  0.00    -0.193 N 
ATOM      4  HN  UNK N   1      41.164  43.972  49.322  1.00  0.00     0.184 HD
HETATM    5  C   UNK N   1      41.509  45.144  47.571  0.00  0.00     0.054 A 
HETATM    6  C   UNK N   1      42.003  46.428  47.411  0.00  0.00     0.056 A 
HETATM    7  N   UNK N   1      42.268  46.926  48.636  0.00  0.00    -0.189 N 
HETATM    8  C   UNK N   1      42.799  48.244  48.988  0.00  0.00     0.175 C 
HETATM    9  H   UNK N   1      42.456  46.972  51.289  0.00  0.00     0.186 HD
ENDROOT
BRANCH   1  10
HETATM   10  C   UNK N   1      41.630  45.131  51.874  0.00  0.00     0.194 A 
HETATM   11  N   UNK N   1      42.235  44.828  52.973  0.00  0.00    -0.289 N 
HETATM   12  C   UNK N   1      41.500  43.849  53.569  0.00  0.00     0.330 A 
ATOM     13  HN  UNK N   1      43.097  45.242  53.326  1.00  0.00     0.172 HD
HETATM   14  O   UNK N   1      41.796  43.333  54.634  0.00  0.00    -0.246 OA
HETATM   15  N   UNK N   1      40.409  43.519  52.842  0.00  0.00    -0.268 N 
HETATM   16  C   UNK N   1      40.441  44.300  51.756  0.00  0.00     0.296 A 
HETATM   17  C   UNK N   1      39.408  42.523  53.169  0.00  0.00     0.165 C 
HETATM   18  O   UNK N   1      39.619  44.292  50.853  0.00  0.00    -0.264 OA
ENDBRANCH   1  10
BRANCH   5  19
HETATM   19  C   UNK N   1      40.964  44.229  46.506  0.00  0.00     0.098 C 
BRANCH  19  20
HETATM   20  C   UNK N   1      42.078  43.411  45.888  0.00  0.00    -0.052 A 
HETATM   21  C   UNK N   1      42.670  43.776  44.665  0.00  0.00     0.010 A 
HETATM   22  C   UNK N   1      43.731  43.018  44.141  0.00  0.00     0.037 A 
HETATM   23  C   UNK N   1      44.204  41.882  44.833  0.00  0.00     0.068 A 
HETATM   24  C   UNK N   1      43.601  41.520  46.040  0.00  0.00     0.037 A 
HETATM   25  C   UNK N   1      42.557  42.277  46.566  0.00  0.00     0.010 A 
BRANCH  23  26
HETATM   26  O   UNK N   1      45.236  41.121  44.380  0.00  0.00    -0.356 OA
HETATM   27  C   UNK N   1      45.460  40.769  43.066  0.00  0.00     0.210 C 
ENDBRANCH  23  26
ENDBRANCH  19  20
ENDBRANCH   5  19
BRANCH   6  28
HETATM   28  C   UNK N   1      42.222  47.166  46.113  0.00  0.00     0.098 C 
BRANCH  28  29
HETATM   29  C   UNK N   1      41.032  47.965  45.629  0.00  0.00    -0.052 A 
HETATM   30  C   UNK N   1      41.259  49.233  45.067  0.00  0.00     0.010 A 
HETATM   31  C   UNK N   1      40.194  49.989  44.570  0.00  0.00     0.037 A 
HETATM   32  C   UNK N   1      38.892  49.482  44.614  0.00  0.00     0.065 A 
HETATM   33  C   UNK N   1      38.655  48.220  45.173  0.00  0.00     0.037 A 
HETATM   34  C   UNK N   1      39.714  47.467  45.683  0.00  0.00     0.010 A 
BRANCH  32  35
HETATM   35  O   UNK N   1      37.876  50.213  44.112  0.00  0.00    -0.361 OA
HETATM   36  H   UNK N   1      37.240  50.663  44.687  0.00  0.00     0.217 HD
ENDBRANCH  32  35
ENDBRANCH  28  29
ENDBRANCH   6  28
TORSDOF 7
ENDMDL
