MODEL 1
REMARK VINA RESULT:      -6.8      0.000      0.000
REMARK  1 active torsions:
REMARK  status: ('A' for Active; 'I' for Inactive)
REMARK    1  A    between atoms: C_4  and  C_21 
ROOT
HETATM    1  O   UNK N   1      30.677  48.212  40.878  0.00  0.00    -0.260 OA
HETATM    2  C   UNK N   1      30.949  49.364  41.164  0.00  0.00     0.284 C 
HETATM    3  O   UNK N   1      31.787  49.627  42.203  0.00  0.00    -0.308 OA
HETATM    4  C   UNK N   1      32.413  50.857  42.336  0.00  0.00     0.169 C 
HETATM    5  C   UNK N   1      31.422  51.977  42.021  0.00  0.00    -0.022 C 
HETATM    6  C   UNK N   1      31.361  53.147  42.707  0.00  0.00     0.016 C 
HETATM    7  C   UNK N   1      30.326  54.208  42.401  0.00  0.00     0.161 C 
HETATM    8  O   UNK N   1      30.850  55.396  41.939  0.00  0.00    -0.311 OA
HETATM    9  C   UNK N   1      29.967  56.031  41.143  0.00  0.00     0.268 C 
HETATM   10  C   UNK N   1      28.745  55.215  40.850  0.00  0.00     0.052 C 
HETATM   11  C   UNK N   1      29.278  53.829  41.332  0.00  0.00     0.050 C 
HETATM   12  C   UNK N   1      29.911  52.989  40.183  0.00  0.00    -0.009 C 
HETATM   13  C   UNK N   1      30.525  51.752  40.845  0.00  0.00    -0.035 C 
HETATM   14  C   UNK N   1      30.323  50.485  40.422  0.00  0.00     0.090 C 
HETATM   15  C   UNK N   1      28.776  52.693  39.140  0.00  0.00     0.014 C 
HETATM   16  C   UNK N   1      27.753  53.854  38.947  0.00  0.00     0.002 C 
HETATM   17  C   UNK N   1      28.311  55.224  39.345  0.00  0.00     0.020 C 
HETATM   18  C   UNK N   1      31.127  53.657  39.455  0.00  0.00     0.021 C 
HETATM   19  C   UNK N   1      27.590  55.697  41.756  0.00  0.00     0.026 C 
HETATM   20  O   UNK N   1      30.110  57.196  40.808  0.00  0.00    -0.264 OA
ENDROOT
BRANCH   4  21
HETATM   21  C   UNK N   1      33.170  50.933  43.689  0.00  0.00     0.011 C 
HETATM   22  C   UNK N   1      32.755  49.790  44.634  0.00  0.00     0.012 C 
HETATM   23  C   UNK N   1      34.686  50.886  43.455  0.00  0.00     0.012 C 
ENDBRANCH   4  21
TORSDOF 1
ENDMDL
MODEL 2
REMARK VINA RESULT:      -6.7      2.207      3.919
REMARK  1 active torsions:
REMARK  status: ('A' for Active; 'I' for Inactive)
REMARK    1  A    between atoms: C_4  and  C_21 
ROOT
HETATM    1  O   UNK N   1      33.120  55.287  45.304  0.00  0.00    -0.260 OA
HETATM    2  C   UNK N   1      32.503  54.649  44.470  0.00  0.00     0.284 C 
HETATM    3  O   UNK N   1      32.795  53.337  44.264  0.00  0.00    -0.308 OA
HETATM    4  C   UNK N   1      31.907  52.488  43.621  0.00  0.00     0.169 C 
HETATM    5  C   UNK N   1      31.295  53.198  42.415  0.00  0.00    -0.022 C 
HETATM    6  C   UNK N   1      31.055  52.594  41.224  0.00  0.00     0.016 C 
HETATM    7  C   UNK N   1      30.501  53.348  40.033  0.00  0.00     0.161 C 
HETATM    8  O   UNK N   1      29.254  52.928  39.625  0.00  0.00    -0.311 OA
HETATM    9  C   UNK N   1      28.577  53.935  39.040  0.00  0.00     0.268 C 
HETATM   10  C   UNK N   1      29.284  55.252  39.135  0.00  0.00     0.052 C 
HETATM   11  C   UNK N   1      30.329  54.870  40.229  0.00  0.00     0.050 C 
HETATM   12  C   UNK N   1      29.850  55.210  41.672  0.00  0.00    -0.009 C 
HETATM   13  C   UNK N   1      30.901  54.628  42.621  0.00  0.00    -0.035 C 
HETATM   14  C   UNK N   1      31.473  55.313  43.635  0.00  0.00     0.090 C 
HETATM   15  C   UNK N   1      29.672  56.768  41.751  0.00  0.00     0.014 C 
HETATM   16  C   UNK N   1      29.131  57.426  40.444  0.00  0.00     0.002 C 
HETATM   17  C   UNK N   1      28.361  56.449  39.549  0.00  0.00     0.020 C 
HETATM   18  C   UNK N   1      28.522  54.511  42.121  0.00  0.00     0.021 C 
HETATM   19  C   UNK N   1      29.987  55.544  37.791  0.00  0.00     0.026 C 
HETATM   20  O   UNK N   1      27.557  53.749  38.396  0.00  0.00    -0.264 OA
ENDROOT
BRANCH   4  21
HETATM   21  C   UNK N   1      32.564  51.103  43.377  0.00  0.00     0.011 C 
HETATM   22  C   UNK N   1      34.095  51.170  43.527  0.00  0.00     0.012 C 
HETATM   23  C   UNK N   1      31.994  50.063  44.350  0.00  0.00     0.012 C 
ENDBRANCH   4  21
TORSDOF 1
ENDMDL
MODEL 3
REMARK VINA RESULT:      -6.4      1.757      2.758
REMARK  1 active torsions:
REMARK  status: ('A' for Active; 'I' for Inactive)
REMARK    1  A    between atoms: C_4  and  C_21 
ROOT
HETATM    1  O   UNK N   1      32.083  50.548  42.700  0.00  0.00    -0.260 OA
HETATM    2  C   UNK N   1      31.712  51.684  42.466  0.00  0.00     0.284 C 
HETATM    3  O   UNK N   1      31.904  52.665  43.390  0.00  0.00    -0.308 OA
HETATM    4  C   UNK N   1      31.849  54.007  43.045  0.00  0.00     0.169 C 
HETATM    5  C   UNK N   1      30.675  54.248  42.098  0.00  0.00    -0.022 C 
HETATM    6  C   UNK N   1      29.872  55.342  42.153  0.00  0.00     0.016 C 
HETATM    7  C   UNK N   1      28.682  55.516  41.234  0.00  0.00     0.161 C 
HETATM    8  O   UNK N   1      28.783  56.585  40.370  0.00  0.00    -0.311 OA
HETATM    9  C   UNK N   1      28.082  56.357  39.242  0.00  0.00     0.268 C 
HETATM   10  C   UNK N   1      27.529  54.967  39.163  0.00  0.00     0.052 C 
HETATM   11  C   UNK N   1      28.376  54.321  40.304  0.00  0.00     0.050 C 
HETATM   12  C   UNK N   1      29.684  53.652  39.784  0.00  0.00    -0.009 C 
HETATM   13  C   UNK N   1      30.468  53.223  41.027  0.00  0.00    -0.035 C 
HETATM   14  C   UNK N   1      30.997  51.992  41.205  0.00  0.00     0.090 C 
HETATM   15  C   UNK N   1      29.262  52.483  38.826  0.00  0.00     0.014 C 
HETATM   16  C   UNK N   1      27.998  52.777  37.962  0.00  0.00     0.002 C 
HETATM   17  C   UNK N   1      27.728  54.274  37.773  0.00  0.00     0.020 C 
HETATM   18  C   UNK N   1      30.676  54.607  39.037  0.00  0.00     0.021 C 
HETATM   19  C   UNK N   1      26.034  54.999  39.549  0.00  0.00     0.026 C 
HETATM   20  O   UNK N   1      27.831  57.242  38.439  0.00  0.00    -0.264 OA
ENDROOT
BRANCH   4  21
HETATM   21  C   UNK N   1      31.937  54.895  44.315  0.00  0.00     0.011 C 
HETATM   22  C   UNK N   1      31.312  54.197  45.536  0.00  0.00     0.012 C 
HETATM   23  C   UNK N   1      33.399  55.253  44.615  0.00  0.00     0.012 C 
ENDBRANCH   4  21
TORSDOF 1
ENDMDL
MODEL 4
REMARK VINA RESULT:      -5.8     18.644     20.514
REMARK  1 active torsions:
REMARK  status: ('A' for Active; 'I' for Inactive)
REMARK    1  A    between atoms: C_4  and  C_21 
ROOT
HETATM    1  O   UNK N   1      49.860  59.790  38.975  0.00  0.00    -0.260 OA
HETATM    2  C   UNK N   1      50.006  58.753  39.596  0.00  0.00     0.284 C 
HETATM    3  O   UNK N   1      49.972  57.560  38.943  0.00  0.00    -0.308 OA
HETATM    4  C   UNK N   1      50.490  56.406  39.513  0.00  0.00     0.169 C 
HETATM    5  C   UNK N   1      50.091  56.335  40.986  0.00  0.00    -0.022 C 
HETATM    6  C   UNK N   1      49.728  55.189  41.616  0.00  0.00     0.016 C 
HETATM    7  C   UNK N   1      49.283  55.169  43.063  0.00  0.00     0.161 C 
HETATM    8  O   UNK N   1      50.114  54.460  43.903  0.00  0.00    -0.311 OA
HETATM    9  C   UNK N   1      50.057  54.948  45.157  0.00  0.00     0.268 C 
HETATM   10  C   UNK N   1      49.249  56.205  45.264  0.00  0.00     0.052 C 
HETATM   11  C   UNK N   1      49.167  56.550  43.744  0.00  0.00     0.050 C 
HETATM   12  C   UNK N   1      50.299  57.514  43.279  0.00  0.00    -0.009 C 
HETATM   13  C   UNK N   1      50.176  57.616  41.756  0.00  0.00    -0.035 C 
HETATM   14  C   UNK N   1      50.160  58.780  41.070  0.00  0.00     0.090 C 
HETATM   15  C   UNK N   1      50.111  58.866  44.054  0.00  0.00     0.014 C 
HETATM   16  C   UNK N   1      49.612  58.707  45.523  0.00  0.00     0.002 C 
HETATM   17  C   UNK N   1      49.921  57.330  46.121  0.00  0.00     0.020 C 
HETATM   18  C   UNK N   1      51.759  56.989  43.494  0.00  0.00     0.021 C 
HETATM   19  C   UNK N   1      47.849  55.858  45.817  0.00  0.00     0.026 C 
HETATM   20  O   UNK N   1      50.518  54.346  46.114  0.00  0.00    -0.264 OA
ENDROOT
BRANCH   4  21
HETATM   21  C   UNK N   1      50.168  55.174  38.625  0.00  0.00     0.011 C 
HETATM   22  C   UNK N   1      48.765  55.280  38.001  0.00  0.00     0.012 C 
HETATM   23  C   UNK N   1      51.218  55.027  37.516  0.00  0.00     0.012 C 
ENDBRANCH   4  21
TORSDOF 1
ENDMDL
MODEL 5
REMARK VINA RESULT:      -5.5     17.210     20.536
REMARK  1 active torsions:
REMARK  status: ('A' for Active; 'I' for Inactive)
REMARK    1  A    between atoms: C_4  and  C_21 
ROOT
HETATM    1  O   UNK N   1      50.563  57.099  36.687  0.00  0.00    -0.260 OA
HETATM    2  C   UNK N   1      50.130  56.692  37.751  0.00  0.00     0.284 C 
HETATM    3  O   UNK N   1      48.793  56.492  37.908  0.00  0.00    -0.308 OA
HETATM    4  C   UNK N   1      48.294  55.700  38.931  0.00  0.00     0.169 C 
HETATM    5  C   UNK N   1      49.049  55.995  40.227  0.00  0.00    -0.022 C 
HETATM    6  C   UNK N   1      48.458  56.059  41.448  0.00  0.00     0.016 C 
HETATM    7  C   UNK N   1      49.232  56.411  42.700  0.00  0.00     0.161 C 
HETATM    8  O   UNK N   1      49.291  55.399  43.634  0.00  0.00    -0.311 OA
HETATM    9  C   UNK N   1      50.411  55.498  44.376  0.00  0.00     0.268 C 
HETATM   10  C   UNK N   1      51.349  56.559  43.889  0.00  0.00     0.052 C 
HETATM   11  C   UNK N   1      50.711  56.797  42.484  0.00  0.00     0.050 C 
HETATM   12  C   UNK N   1      51.370  55.935  41.366  0.00  0.00    -0.009 C 
HETATM   13  C   UNK N   1      50.531  56.158  40.104  0.00  0.00    -0.035 C 
HETATM   14  C   UNK N   1      51.046  56.470  38.894  0.00  0.00     0.090 C 
HETATM   15  C   UNK N   1      52.871  56.380  41.255  0.00  0.00     0.014 C 
HETATM   16  C   UNK N   1      53.539  56.752  42.614  0.00  0.00     0.002 C 
HETATM   17  C   UNK N   1      52.849  56.112  43.824  0.00  0.00     0.020 C 
HETATM   18  C   UNK N   1      51.300  54.386  41.583  0.00  0.00     0.021 C 
HETATM   19  C   UNK N   1      51.191  57.815  44.776  0.00  0.00     0.026 C 
HETATM   20  O   UNK N   1      50.569  54.864  45.408  0.00  0.00    -0.264 OA
ENDROOT
BRANCH   4  21
HETATM   21  C   UNK N   1      46.745  55.785  38.973  0.00  0.00     0.011 C 
HETATM   22  C   UNK N   1      46.256  57.242  38.883  0.00  0.00     0.012 C 
HETATM   23  C   UNK N   1      46.135  54.964  37.828  0.00  0.00     0.012 C 
ENDBRANCH   4  21
TORSDOF 1
ENDMDL
MODEL 6
REMARK VINA RESULT:      -5.2     15.919     19.556
REMARK  1 active torsions:
REMARK  status: ('A' for Active; 'I' for Inactive)
REMARK    1  A    between atoms: C_4  and  C_21 
ROOT
HETATM    1  O   UNK N   1      31.122  49.973  55.865  0.00  0.00    -0.260 OA
HETATM    2  C   UNK N   1      30.523  49.419  56.769  0.00  0.00     0.284 C 
HETATM    3  O   UNK N   1      29.742  50.146  57.612  0.00  0.00    -0.308 OA
HETATM    4  C   UNK N   1      28.771  49.547  58.400  0.00  0.00     0.169 C 
HETATM    5  C   UNK N   1      29.319  48.253  59.000  0.00  0.00    -0.022 C 
HETATM    6  C   UNK N   1      29.065  47.841  60.268  0.00  0.00     0.016 C 
HETATM    7  C   UNK N   1      29.675  46.581  60.845  0.00  0.00     0.161 C 
HETATM    8  O   UNK N   1      28.761  45.602  61.163  0.00  0.00    -0.311 OA
HETATM    9  C   UNK N   1      29.319  44.379  61.076  0.00  0.00     0.268 C 
HETATM   10  C   UNK N   1      30.706  44.404  60.510  0.00  0.00     0.052 C 
HETATM   11  C   UNK N   1      30.690  45.855  59.935  0.00  0.00     0.050 C 
HETATM   12  C   UNK N   1      30.257  45.909  58.439  0.00  0.00    -0.009 C 
HETATM   13  C   UNK N   1      30.132  47.393  58.083  0.00  0.00    -0.035 C 
HETATM   14  C   UNK N   1      30.689  47.963  56.992  0.00  0.00     0.090 C 
HETATM   15  C   UNK N   1      31.329  45.114  57.613  0.00  0.00     0.014 C 
HETATM   16  C   UNK N   1      31.907  43.859  58.337  0.00  0.00     0.002 C 
HETATM   17  C   UNK N   1      30.978  43.308  59.425  0.00  0.00     0.020 C 
HETATM   18  C   UNK N   1      28.832  45.337  58.131  0.00  0.00     0.021 C 
HETATM   19  C   UNK N   1      31.723  44.291  61.668  0.00  0.00     0.026 C 
HETATM   20  O   UNK N   1      28.783  43.381  61.531  0.00  0.00    -0.264 OA
ENDROOT
BRANCH   4  21
HETATM   21  C   UNK N   1      28.153  50.582  59.378  0.00  0.00     0.011 C 
HETATM   22  C   UNK N   1      28.578  52.018  59.021  0.00  0.00     0.012 C 
HETATM   23  C   UNK N   1      26.622  50.478  59.367  0.00  0.00     0.012 C 
ENDBRANCH   4  21
TORSDOF 1
ENDMDL
MODEL 7
REMARK VINA RESULT:      -5.1     17.649     19.850
REMARK  1 active torsions:
REMARK  status: ('A' for Active; 'I' for Inactive)
REMARK    1  A    between atoms: C_4  and  C_21 
ROOT
HETATM    1  O   UNK N   1      50.226  54.548  39.058  0.00  0.00    -0.260 OA
HETATM    2  C   UNK N   1      49.734  55.350  39.831  0.00  0.00     0.284 C 
HETATM    3  O   UNK N   1      49.185  56.501  39.358  0.00  0.00    -0.308 OA
HETATM    4  C   UNK N   1      48.304  57.252  40.121  0.00  0.00     0.169 C 
HETATM    5  C   UNK N   1      48.810  57.335  41.560  0.00  0.00    -0.022 C 
HETATM    6  C   UNK N   1      48.731  58.454  42.325  0.00  0.00     0.016 C 
HETATM    7  C   UNK N   1      49.297  58.514  43.728  0.00  0.00     0.161 C 
HETATM    8  O   UNK N   1      48.353  58.704  44.714  0.00  0.00    -0.311 OA
HETATM    9  C   UNK N   1      48.761  58.161  45.878  0.00  0.00     0.268 C 
HETATM   10  C   UNK N   1      50.028  57.373  45.748  0.00  0.00     0.052 C 
HETATM   11  C   UNK N   1      50.064  57.256  44.192  0.00  0.00     0.050 C 
HETATM   12  C   UNK N   1      49.394  55.952  43.666  0.00  0.00    -0.009 C 
HETATM   13  C   UNK N   1      49.364  56.071  42.139  0.00  0.00    -0.035 C 
HETATM   14  C   UNK N   1      49.785  55.106  41.293  0.00  0.00     0.090 C 
HETATM   15  C   UNK N   1      50.224  54.742  44.223  0.00  0.00     0.014 C 
HETATM   16  C   UNK N   1      50.783  54.947  45.664  0.00  0.00     0.002 C 
HETATM   17  C   UNK N   1      49.999  55.985  46.475  0.00  0.00     0.020 C 
HETATM   18  C   UNK N   1      47.886  55.770  44.049  0.00  0.00     0.021 C 
HETATM   19  C   UNK N   1      51.208  58.231  46.255  0.00  0.00     0.026 C 
HETATM   20  O   UNK N   1      48.209  58.402  46.940  0.00  0.00    -0.264 OA
ENDROOT
BRANCH   4  21
HETATM   21  C   UNK N   1      47.969  58.587  39.403  0.00  0.00     0.011 C 
HETATM   22  C   UNK N   1      48.586  58.640  37.994  0.00  0.00     0.012 C 
HETATM   23  C   UNK N   1      46.449  58.775  39.309  0.00  0.00     0.012 C 
ENDBRANCH   4  21
TORSDOF 1
ENDMDL
MODEL 8
REMARK VINA RESULT:      -4.9     16.666     20.256
REMARK  1 active torsions:
REMARK  status: ('A' for Active; 'I' for Inactive)
REMARK    1  A    between atoms: C_4  and  C_21 
ROOT
HETATM    1  O   UNK N   1      30.725  49.112  56.418  0.00  0.00    -0.260 OA
HETATM    2  C   UNK N   1      30.320  48.386  57.308  0.00  0.00     0.284 C 
HETATM    3  O   UNK N   1      29.538  48.895  58.298  0.00  0.00    -0.308 OA
HETATM    4  C   UNK N   1      28.761  48.075  59.102  0.00  0.00     0.169 C 
HETATM    5  C   UNK N   1      29.559  46.835  59.499  0.00  0.00    -0.022 C 
HETATM    6  C   UNK N   1      29.512  46.267  60.732  0.00  0.00     0.016 C 
HETATM    7  C   UNK N   1      30.363  45.072  61.103  0.00  0.00     0.161 C 
HETATM    8  O   UNK N   1      29.645  43.933  61.395  0.00  0.00    -0.311 OA
HETATM    9  C   UNK N   1      30.366  42.829  61.119  0.00  0.00     0.268 C 
HETATM   10  C   UNK N   1      31.662  43.129  60.430  0.00  0.00     0.052 C 
HETATM   11  C   UNK N   1      31.366  44.607  60.025  0.00  0.00     0.050 C 
HETATM   12  C   UNK N   1      30.766  44.735  58.593  0.00  0.00    -0.009 C 
HETATM   13  C   UNK N   1      30.383  46.207  58.419  0.00  0.00    -0.035 C 
HETATM   14  C   UNK N   1      30.724  46.960  57.350  0.00  0.00     0.090 C 
HETATM   15  C   UNK N   1      31.846  44.204  57.584  0.00  0.00     0.014 C 
HETATM   16  C   UNK N   1      32.680  42.994  58.105  0.00  0.00     0.002 C 
HETATM   17  C   UNK N   1      31.972  42.200  59.208  0.00  0.00     0.020 C 
HETATM   18  C   UNK N   1      29.417  43.975  58.359  0.00  0.00     0.021 C 
HETATM   19  C   UNK N   1      32.807  43.069  61.465  0.00  0.00     0.026 C 
HETATM   20  O   UNK N   1      30.038  41.719  61.509  0.00  0.00    -0.264 OA
ENDROOT
BRANCH   4  21
HETATM   21  C   UNK N   1      28.109  48.900  60.244  0.00  0.00     0.011 C 
HETATM   22  C   UNK N   1      29.010  50.070  60.681  0.00  0.00     0.012 C 
HETATM   23  C   UNK N   1      26.742  49.438  59.800  0.00  0.00     0.012 C 
ENDBRANCH   4  21
TORSDOF 1
ENDMDL
MODEL 9
REMARK VINA RESULT:      -4.9     15.828     18.342
REMARK  1 active torsions:
REMARK  status: ('A' for Active; 'I' for Inactive)
REMARK    1  A    between atoms: C_4  and  C_21 
ROOT
HETATM    1  O   UNK N   1      32.224  44.645  56.975  0.00  0.00    -0.260 OA
HETATM    2  C   UNK N   1      31.436  45.197  57.722  0.00  0.00     0.284 C 
HETATM    3  O   UNK N   1      30.946  44.533  58.804  0.00  0.00    -0.308 OA
HETATM    4  C   UNK N   1      30.362  45.206  59.865  0.00  0.00     0.169 C 
HETATM    5  C   UNK N   1      29.453  46.314  59.335  0.00  0.00    -0.022 C 
HETATM    6  C   UNK N   1      28.249  46.629  59.878  0.00  0.00     0.016 C 
HETATM    7  C   UNK N   1      27.351  47.695  59.288  0.00  0.00     0.161 C 
HETATM    8  O   UNK N   1      27.142  48.780  60.110  0.00  0.00    -0.311 OA
HETATM    9  C   UNK N   1      26.896  49.889  59.386  0.00  0.00     0.268 C 
HETATM   10  C   UNK N   1      27.074  49.682  57.913  0.00  0.00     0.052 C 
HETATM   11  C   UNK N   1      27.843  48.325  57.967  0.00  0.00     0.050 C 
HETATM   12  C   UNK N   1      29.391  48.504  57.961  0.00  0.00    -0.009 C 
HETATM   13  C   UNK N   1      29.984  47.110  58.185  0.00  0.00    -0.035 C 
HETATM   14  C   UNK N   1      30.963  46.570  57.426  0.00  0.00     0.090 C 
HETATM   15  C   UNK N   1      29.778  49.182  56.600  0.00  0.00     0.014 C 
HETATM   16  C   UNK N   1      28.749  50.234  56.083  0.00  0.00     0.002 C 
HETATM   17  C   UNK N   1      27.874  50.822  57.195  0.00  0.00     0.020 C 
HETATM   18  C   UNK N   1      29.974  49.345  59.147  0.00  0.00     0.021 C 
HETATM   19  C   UNK N   1      25.687  49.494  57.260  0.00  0.00     0.026 C 
HETATM   20  O   UNK N   1      26.454  50.912  59.886  0.00  0.00    -0.264 OA
ENDROOT
BRANCH   4  21
HETATM   21  C   UNK N   1      29.746  44.198  60.872  0.00  0.00     0.011 C 
HETATM   22  C   UNK N   1      29.800  42.757  60.332  0.00  0.00     0.012 C 
HETATM   23  C   UNK N   1      30.479  44.273  62.218  0.00  0.00     0.012 C 
ENDBRANCH   4  21
TORSDOF 1
ENDMDL
