MODEL 1
REMARK VINA RESULT:      -6.4      0.000      0.000
REMARK  10 active torsions:
REMARK  status: ('A' for Active; 'I' for Inactive)
REMARK    1  A    between atoms: C_6  and  C_7 
REMARK    2  A    between atoms: C_10  and  O_11 
REMARK    3  A    between atoms: C_17  and  O_18 
REMARK    4  A    between atoms: O_18  and  C_19 
REMARK    5  A    between atoms: C_21  and  C_31 
REMARK    6  A    between atoms: C_22  and  O_23 
REMARK    7  A    between atoms: C_25  and  O_26 
REMARK    8  A    between atoms: C_28  and  O_29 
REMARK    9  A    between atoms: C_31  and  O_32 
REMARK   10  A    between atoms: C_35  and  O_36 
ROOT
HETATM    1  O   UNK N   1      29.912  41.976  61.869  0.00  0.00    -0.292 OA
HETATM    2  C   UNK N   1      30.991  41.995  61.304  0.00  0.00     0.167 C 
HETATM    3  C   UNK N   1      32.174  42.726  61.856  0.00  0.00     0.076 A 
HETATM    4  C   UNK N   1      33.243  42.948  60.959  0.00  0.00     0.089 A 
HETATM    5  O   UNK N   1      33.155  42.531  59.668  0.00  0.00    -0.340 OA
HETATM    6  C   UNK N   1      31.949  42.242  59.043  0.00  0.00     0.169 C 
HETATM    7  C   UNK N   1      31.150  41.308  59.969  0.00  0.00     0.121 C 
HETATM    8  C   UNK N   1      34.402  43.603  61.377  0.00  0.00     0.074 A 
HETATM    9  C   UNK N   1      34.529  44.051  62.691  0.00  0.00     0.077 A 
HETATM   10  C   UNK N   1      33.467  43.855  63.591  0.00  0.00     0.074 A 
HETATM   11  C   UNK N   1      32.290  43.205  63.194  0.00  0.00     0.085 A 
ENDROOT
BRANCH   9  12
HETATM   12  O   UNK N   1      35.687  44.658  63.063  0.00  0.00    -0.318 OA
BRANCH  12  13
HETATM   13  C   UNK N   1      36.501  45.383  62.207  0.00  0.00     0.298 C 
HETATM   14  O   UNK N   1      37.863  44.953  62.263  0.00  0.00    -0.348 OA
HETATM   15  C   UNK N   1      38.564  45.336  63.449  0.00  0.00     0.179 C 
HETATM   16  C   UNK N   1      38.474  46.863  63.725  0.00  0.00     0.180 C 
HETATM   17  C   UNK N   1      36.999  47.301  63.757  0.00  0.00     0.183 C 
HETATM   18  C   UNK N   1      36.311  46.898  62.441  0.00  0.00     0.205 C 
BRANCH  15  19
HETATM   19  C   UNK N   1      38.192  44.464  64.667  0.00  0.00     0.198 C 
BRANCH  19  20
HETATM   20  O   UNK N   1      38.916  43.263  64.653  0.00  0.00    -0.398 OA
HETATM   21  H   UNK N   1      39.811  43.473  64.284  0.00  0.00     0.209 HD
ENDBRANCH  19  20
ENDBRANCH  15  19
BRANCH  16  22
HETATM   22  O   UNK N   1      39.198  47.608  62.767  0.00  0.00    -0.390 OA
HETATM   23  H   UNK N   1      38.570  48.129  62.201  0.00  0.00     0.210 HD
ENDBRANCH  16  22
BRANCH  17  24
HETATM   24  O   UNK N   1      36.864  48.676  64.022  0.00  0.00    -0.390 OA
HETATM   25  H   UNK N   1      37.765  49.091  63.983  0.00  0.00     0.210 HD
ENDBRANCH  17  24
BRANCH  18  26
HETATM   26  O   UNK N   1      36.853  47.620  61.365  0.00  0.00    -0.388 OA
HETATM   27  H   UNK N   1      37.826  47.715  61.543  0.00  0.00     0.210 HD
ENDBRANCH  18  26
ENDBRANCH  12  13
ENDBRANCH   9  12
BRANCH  11  28
HETATM   28  O   UNK N   1      31.321  43.045  64.124  0.00  0.00    -0.360 OA
HETATM   29  H   UNK N   1      30.878  43.760  64.591  0.00  0.00     0.217 HD
ENDBRANCH  11  28
BRANCH   6  30
HETATM   30  C   UNK N   1      31.253  43.545  58.653  0.00  0.00    -0.028 A 
HETATM   31  C   UNK N   1      31.945  44.463  57.842  0.00  0.00     0.012 A 
HETATM   32  C   UNK N   1      31.353  45.670  57.464  0.00  0.00     0.037 A 
HETATM   33  C   UNK N   1      30.051  45.970  57.868  0.00  0.00     0.065 A 
HETATM   34  C   UNK N   1      29.342  45.060  58.665  0.00  0.00     0.037 A 
HETATM   35  C   UNK N   1      29.939  43.858  59.062  0.00  0.00     0.012 A 
BRANCH  33  36
HETATM   36  O   UNK N   1      29.487  47.135  57.485  0.00  0.00    -0.361 OA
HETATM   37  H   UNK N   1      28.528  47.260  57.482  0.00  0.00     0.217 HD
ENDBRANCH  33  36
ENDBRANCH   6  30
TORSDOF 10
ENDMDL
MODEL 2
REMARK VINA RESULT:      -6.3      2.775      8.139
REMARK  10 active torsions:
REMARK  status: ('A' for Active; 'I' for Inactive)
REMARK    1  A    between atoms: C_6  and  C_7 
REMARK    2  A    between atoms: C_10  and  O_11 
REMARK    3  A    between atoms: C_17  and  O_18 
REMARK    4  A    between atoms: O_18  and  C_19 
REMARK    5  A    between atoms: C_21  and  C_31 
REMARK    6  A    between atoms: C_22  and  O_23 
REMARK    7  A    between atoms: C_25  and  O_26 
REMARK    8  A    between atoms: C_28  and  O_29 
REMARK    9  A    between atoms: C_31  and  O_32 
REMARK   10  A    between atoms: C_35  and  O_36 
ROOT
HETATM    1  O   UNK N   1      32.502  42.108  59.628  0.00  0.00    -0.292 OA
HETATM    2  C   UNK N   1      31.670  42.915  60.004  0.00  0.00     0.167 C 
HETATM    3  C   UNK N   1      31.366  44.168  59.245  0.00  0.00     0.076 A 
HETATM    4  C   UNK N   1      30.644  45.161  59.945  0.00  0.00     0.089 A 
HETATM    5  O   UNK N   1      30.285  44.964  61.242  0.00  0.00    -0.340 OA
HETATM    6  C   UNK N   1      30.897  44.028  62.067  0.00  0.00     0.169 C 
HETATM    7  C   UNK N   1      30.944  42.689  61.308  0.00  0.00     0.121 C 
HETATM    8  C   UNK N   1      30.292  46.360  59.325  0.00  0.00     0.074 A 
HETATM    9  C   UNK N   1      30.647  46.603  57.999  0.00  0.00     0.077 A 
HETATM   10  C   UNK N   1      31.383  45.634  57.294  0.00  0.00     0.074 A 
HETATM   11  C   UNK N   1      31.753  44.423  57.897  0.00  0.00     0.085 A 
ENDROOT
BRANCH   9  12
HETATM   12  O   UNK N   1      30.258  47.772  57.424  0.00  0.00    -0.318 OA
BRANCH  12  13
HETATM   13  C   UNK N   1      28.952  48.234  57.396  0.00  0.00     0.298 C 
HETATM   14  O   UNK N   1      28.699  49.069  56.264  0.00  0.00    -0.348 OA
HETATM   15  C   UNK N   1      29.285  50.371  56.338  0.00  0.00     0.179 C 
HETATM   16  C   UNK N   1      28.910  51.119  57.648  0.00  0.00     0.180 C 
HETATM   17  C   UNK N   1      29.274  50.250  58.865  0.00  0.00     0.183 C 
HETATM   18  C   UNK N   1      28.583  48.881  58.749  0.00  0.00     0.205 C 
BRANCH  15  19
HETATM   19  C   UNK N   1      30.800  50.358  56.045  0.00  0.00     0.198 C 
BRANCH  19  20
HETATM   20  O   UNK N   1      31.103  49.408  55.059  0.00  0.00    -0.398 OA
HETATM   21  H   UNK N   1      31.459  49.906  54.280  0.00  0.00     0.209 HD
ENDBRANCH  19  20
ENDBRANCH  15  19
BRANCH  16  22
HETATM   22  O   UNK N   1      27.541  51.470  57.673  0.00  0.00    -0.390 OA
HETATM   23  H   UNK N   1      27.359  52.057  58.452  0.00  0.00     0.210 HD
ENDBRANCH  16  22
BRANCH  17  24
HETATM   24  O   UNK N   1      28.969  50.893  60.079  0.00  0.00    -0.390 OA
HETATM   25  H   UNK N   1      28.525  50.236  60.677  0.00  0.00     0.210 HD
ENDBRANCH  17  24
BRANCH  18  26
HETATM   26  O   UNK N   1      27.189  49.027  58.844  0.00  0.00    -0.388 OA
HETATM   27  H   UNK N   1      26.912  48.607  59.700  0.00  0.00     0.210 HD
ENDBRANCH  18  26
ENDBRANCH  12  13
ENDBRANCH   9  12
BRANCH  11  28
HETATM   28  O   UNK N   1      32.449  43.540  57.146  0.00  0.00    -0.360 OA
HETATM   29  H   UNK N   1      33.272  43.730  56.688  0.00  0.00     0.217 HD
ENDBRANCH  11  28
BRANCH   6  30
HETATM   30  C   UNK N   1      32.245  44.571  62.539  0.00  0.00    -0.028 A 
HETATM   31  C   UNK N   1      32.318  45.906  62.979  0.00  0.00     0.012 A 
HETATM   32  C   UNK N   1      33.529  46.449  63.415  0.00  0.00     0.037 A 
HETATM   33  C   UNK N   1      34.681  45.662  63.442  0.00  0.00     0.065 A 
HETATM   34  C   UNK N   1      34.622  44.327  63.020  0.00  0.00     0.037 A 
HETATM   35  C   UNK N   1      33.416  43.784  62.565  0.00  0.00     0.012 A 
BRANCH  33  36
HETATM   36  O   UNK N   1      35.841  46.197  63.877  0.00  0.00    -0.361 OA
HETATM   37  H   UNK N   1      36.580  45.644  64.166  0.00  0.00     0.217 HD
ENDBRANCH  33  36
ENDBRANCH   6  30
TORSDOF 10
ENDMDL
MODEL 3
REMARK VINA RESULT:      -6.3      2.545      8.292
REMARK  10 active torsions:
REMARK  status: ('A' for Active; 'I' for Inactive)
REMARK    1  A    between atoms: C_6  and  C_7 
REMARK    2  A    between atoms: C_10  and  O_11 
REMARK    3  A    between atoms: C_17  and  O_18 
REMARK    4  A    between atoms: O_18  and  C_19 
REMARK    5  A    between atoms: C_21  and  C_31 
REMARK    6  A    between atoms: C_22  and  O_23 
REMARK    7  A    between atoms: C_25  and  O_26 
REMARK    8  A    between atoms: C_28  and  O_29 
REMARK    9  A    between atoms: C_31  and  O_32 
REMARK   10  A    between atoms: C_35  and  O_36 
ROOT
HETATM    1  O   UNK N   1      33.882  42.686  58.294  0.00  0.00    -0.292 OA
HETATM    2  C   UNK N   1      32.951  42.844  59.064  0.00  0.00     0.167 C 
HETATM    3  C   UNK N   1      31.955  43.949  58.902  0.00  0.00     0.076 A 
HETATM    4  C   UNK N   1      31.141  44.223  60.024  0.00  0.00     0.089 A 
HETATM    5  O   UNK N   1      31.301  43.519  61.177  0.00  0.00    -0.340 OA
HETATM    6  C   UNK N   1      32.455  42.809  61.481  0.00  0.00     0.169 C 
HETATM    7  C   UNK N   1      32.807  41.937  60.262  0.00  0.00     0.121 C 
HETATM    8  C   UNK N   1      30.167  45.220  59.975  0.00  0.00     0.074 A 
HETATM    9  C   UNK N   1      29.976  45.967  58.814  0.00  0.00     0.077 A 
HETATM   10  C   UNK N   1      30.790  45.721  57.694  0.00  0.00     0.074 A 
HETATM   11  C   UNK N   1      31.780  44.728  57.721  0.00  0.00     0.085 A 
ENDROOT
BRANCH   9  12
HETATM   12  O   UNK N   1      28.995  46.909  58.799  0.00  0.00    -0.318 OA
BRANCH  12  13
HETATM   13  C   UNK N   1      29.200  48.256  59.055  0.00  0.00     0.298 C 
HETATM   14  O   UNK N   1      28.035  48.886  59.595  0.00  0.00    -0.348 OA
HETATM   15  C   UNK N   1      26.981  49.101  58.653  0.00  0.00     0.179 C 
HETATM   16  C   UNK N   1      27.461  49.861  57.386  0.00  0.00     0.180 C 
HETATM   17  C   UNK N   1      28.656  49.123  56.757  0.00  0.00     0.183 C 
HETATM   18  C   UNK N   1      29.771  48.958  57.804  0.00  0.00     0.205 C 
BRANCH  15  19
HETATM   19  C   UNK N   1      26.192  47.812  58.341  0.00  0.00     0.198 C 
BRANCH  19  20
HETATM   20  O   UNK N   1      26.048  47.030  59.496  0.00  0.00    -0.398 OA
HETATM   21  H   UNK N   1      26.257  46.096  59.238  0.00  0.00     0.209 HD
ENDBRANCH  19  20
ENDBRANCH  15  19
BRANCH  16  22
HETATM   22  O   UNK N   1      27.797  51.202  57.680  0.00  0.00    -0.390 OA
HETATM   23  H   UNK N   1      27.015  51.665  58.078  0.00  0.00     0.210 HD
ENDBRANCH  16  22
BRANCH  17  24
HETATM   24  O   UNK N   1      29.117  49.765  55.593  0.00  0.00    -0.390 OA
HETATM   25  H   UNK N   1      29.745  50.485  55.861  0.00  0.00     0.210 HD
ENDBRANCH  17  24
BRANCH  18  26
HETATM   26  O   UNK N   1      30.297  50.211  58.158  0.00  0.00    -0.388 OA
HETATM   27  H   UNK N   1      30.867  50.509  57.401  0.00  0.00     0.210 HD
ENDBRANCH  18  26
ENDBRANCH  12  13
ENDBRANCH   9  12
BRANCH  11  28
HETATM   28  O   UNK N   1      32.512  44.547  56.599  0.00  0.00    -0.360 OA
HETATM   29  H   UNK N   1      32.186  44.655  55.701  0.00  0.00     0.217 HD
ENDBRANCH  11  28
BRANCH   6  30
HETATM   30  C   UNK N   1      33.543  43.778  61.940  0.00  0.00    -0.028 A 
HETATM   31  C   UNK N   1      33.215  44.757  62.897  0.00  0.00     0.012 A 
HETATM   32  C   UNK N   1      34.173  45.668  63.344  0.00  0.00     0.037 A 
HETATM   33  C   UNK N   1      35.482  45.604  62.862  0.00  0.00     0.065 A 
HETATM   34  C   UNK N   1      35.829  44.626  61.920  0.00  0.00     0.037 A 
HETATM   35  C   UNK N   1      34.867  43.723  61.455  0.00  0.00     0.012 A 
BRANCH  33  36
HETATM   36  O   UNK N   1      36.400  46.484  63.312  0.00  0.00    -0.361 OA
HETATM   37  H   UNK N   1      37.280  46.201  63.598  0.00  0.00     0.217 HD
ENDBRANCH  33  36
ENDBRANCH   6  30
TORSDOF 10
ENDMDL
MODEL 4
REMARK VINA RESULT:      -6.1      5.512     11.082
REMARK  10 active torsions:
REMARK  status: ('A' for Active; 'I' for Inactive)
REMARK    1  A    between atoms: C_6  and  C_7 
REMARK    2  A    between atoms: C_10  and  O_11 
REMARK    3  A    between atoms: C_17  and  O_18 
REMARK    4  A    between atoms: O_18  and  C_19 
REMARK    5  A    between atoms: C_21  and  C_31 
REMARK    6  A    between atoms: C_22  and  O_23 
REMARK    7  A    between atoms: C_25  and  O_26 
REMARK    8  A    between atoms: C_28  and  O_29 
REMARK    9  A    between atoms: C_31  and  O_32 
REMARK   10  A    between atoms: C_35  and  O_36 
ROOT
HETATM    1  O   UNK N   1      30.713  38.072  58.812  0.00  0.00    -0.292 OA
HETATM    2  C   UNK N   1      29.959  39.029  58.829  0.00  0.00     0.167 C 
HETATM    3  C   UNK N   1      29.366  39.607  57.582  0.00  0.00     0.076 A 
HETATM    4  C   UNK N   1      28.793  40.893  57.703  0.00  0.00     0.089 A 
HETATM    5  O   UNK N   1      28.820  41.548  58.894  0.00  0.00    -0.340 OA
HETATM    6  C   UNK N   1      29.703  41.229  59.918  0.00  0.00     0.169 C 
HETATM    7  C   UNK N   1      29.638  39.707  60.139  0.00  0.00     0.121 C 
HETATM    8  C   UNK N   1      28.196  41.515  56.607  0.00  0.00     0.074 A 
HETATM    9  C   UNK N   1      28.153  40.878  55.367  0.00  0.00     0.077 A 
HETATM   10  C   UNK N   1      28.736  39.607  55.225  0.00  0.00     0.074 A 
HETATM   11  C   UNK N   1      29.346  38.963  56.310  0.00  0.00     0.085 A 
ENDROOT
BRANCH   9  12
HETATM   12  O   UNK N   1      27.535  41.508  54.332  0.00  0.00    -0.318 OA
BRANCH  12  13
HETATM   13  C   UNK N   1      28.162  41.873  53.151  0.00  0.00     0.298 C 
HETATM   14  O   UNK N   1      27.983  43.259  52.850  0.00  0.00    -0.348 OA
HETATM   15  C   UNK N   1      26.671  43.609  52.403  0.00  0.00     0.179 C 
HETATM   16  C   UNK N   1      26.198  42.737  51.207  0.00  0.00     0.180 C 
HETATM   17  C   UNK N   1      26.305  41.246  51.575  0.00  0.00     0.183 C 
HETATM   18  C   UNK N   1      27.745  40.922  52.008  0.00  0.00     0.205 C 
BRANCH  15  19
HETATM   19  C   UNK N   1      25.650  43.683  53.558  0.00  0.00     0.198 C 
BRANCH  19  20
HETATM   20  O   UNK N   1      26.261  44.157  54.727  0.00  0.00    -0.398 OA
HETATM   21  H   UNK N   1      26.272  45.146  54.664  0.00  0.00     0.209 HD
ENDBRANCH  19  20
ENDBRANCH  15  19
BRANCH  16  22
HETATM   22  O   UNK N   1      26.934  43.018  50.034  0.00  0.00    -0.390 OA
HETATM   23  H   UNK N   1      26.874  42.251  49.407  0.00  0.00     0.210 HD
ENDBRANCH  16  22
BRANCH  17  24
HETATM   24  O   UNK N   1      25.870  40.413  50.527  0.00  0.00    -0.390 OA
HETATM   25  H   UNK N   1      26.060  39.472  50.778  0.00  0.00     0.210 HD
ENDBRANCH  17  24
BRANCH  18  26
HETATM   26  O   UNK N   1      28.625  41.065  50.922  0.00  0.00    -0.388 OA
HETATM   27  H   UNK N   1      28.168  41.640  50.255  0.00  0.00     0.210 HD
ENDBRANCH  18  26
ENDBRANCH  12  13
ENDBRANCH   9  12
BRANCH  11  28
HETATM   28  O   UNK N   1      29.873  37.737  56.093  0.00  0.00    -0.360 OA
HETATM   29  H   UNK N   1      29.538  36.916  56.464  0.00  0.00     0.217 HD
ENDBRANCH  11  28
BRANCH   6  30
HETATM   30  C   UNK N   1      31.084  41.794  59.593  0.00  0.00    -0.028 A 
HETATM   31  C   UNK N   1      32.203  41.275  60.271  0.00  0.00     0.012 A 
HETATM   32  C   UNK N   1      33.486  41.763  60.012  0.00  0.00     0.037 A 
HETATM   33  C   UNK N   1      33.677  42.761  59.055  0.00  0.00     0.065 A 
HETATM   34  C   UNK N   1      32.575  43.279  58.360  0.00  0.00     0.037 A 
HETATM   35  C   UNK N   1      31.286  42.806  58.630  0.00  0.00     0.012 A 
BRANCH  33  36
HETATM   36  O   UNK N   1      34.923  43.214  58.807  0.00  0.00    -0.361 OA
HETATM   37  H   UNK N   1      35.709  42.708  59.057  0.00  0.00     0.217 HD
ENDBRANCH  33  36
ENDBRANCH   6  30
TORSDOF 10
ENDMDL
MODEL 5
REMARK VINA RESULT:      -5.9      5.733     11.166
REMARK  10 active torsions:
REMARK  status: ('A' for Active; 'I' for Inactive)
REMARK    1  A    between atoms: C_6  and  C_7 
REMARK    2  A    between atoms: C_10  and  O_11 
REMARK    3  A    between atoms: C_17  and  O_18 
REMARK    4  A    between atoms: O_18  and  C_19 
REMARK    5  A    between atoms: C_21  and  C_31 
REMARK    6  A    between atoms: C_22  and  O_23 
REMARK    7  A    between atoms: C_25  and  O_26 
REMARK    8  A    between atoms: C_28  and  O_29 
REMARK    9  A    between atoms: C_31  and  O_32 
REMARK   10  A    between atoms: C_35  and  O_36 
ROOT
HETATM    1  O   UNK N   1      30.299  38.234  59.294  0.00  0.00    -0.292 OA
HETATM    2  C   UNK N   1      29.694  39.230  58.940  0.00  0.00     0.167 C 
HETATM    3  C   UNK N   1      29.450  39.551  57.499  0.00  0.00     0.076 A 
HETATM    4  C   UNK N   1      29.043  40.875  57.216  0.00  0.00     0.089 A 
HETATM    5  O   UNK N   1      28.917  41.784  58.219  0.00  0.00    -0.340 OA
HETATM    6  C   UNK N   1      29.523  41.636  59.461  0.00  0.00     0.169 C 
HETATM    7  C   UNK N   1      29.209  40.218  59.972  0.00  0.00     0.121 C 
HETATM    8  C   UNK N   1      28.770  41.275  55.908  0.00  0.00     0.074 A 
HETATM    9  C   UNK N   1      28.894  40.374  54.851  0.00  0.00     0.077 A 
HETATM   10  C   UNK N   1      29.317  39.058  55.112  0.00  0.00     0.074 A 
HETATM   11  C   UNK N   1      29.602  38.634  56.418  0.00  0.00     0.085 A 
ENDROOT
BRANCH   9  12
HETATM   12  O   UNK N   1      28.590  40.798  53.595  0.00  0.00    -0.318 OA
BRANCH  12  13
HETATM   13  C   UNK N   1      27.564  40.279  52.821  0.00  0.00     0.298 C 
HETATM   14  O   UNK N   1      27.611  40.753  51.473  0.00  0.00    -0.348 OA
HETATM   15  C   UNK N   1      27.212  42.116  51.305  0.00  0.00     0.179 C 
HETATM   16  C   UNK N   1      25.818  42.409  51.926  0.00  0.00     0.180 C 
HETATM   17  C   UNK N   1      25.806  41.982  53.404  0.00  0.00     0.183 C 
HETATM   18  C   UNK N   1      26.203  40.500  53.518  0.00  0.00     0.205 C 
BRANCH  15  19
HETATM   19  C   UNK N   1      28.306  43.113  51.741  0.00  0.00     0.198 C 
BRANCH  19  20
HETATM   20  O   UNK N   1      29.577  42.633  51.395  0.00  0.00    -0.398 OA
HETATM   21  H   UNK N   1      29.494  41.652  51.288  0.00  0.00     0.209 HD
ENDBRANCH  19  20
ENDBRANCH  15  19
BRANCH  16  22
HETATM   22  O   UNK N   1      24.784  41.766  51.209  0.00  0.00    -0.390 OA
HETATM   23  H   UNK N   1      25.022  40.814  51.056  0.00  0.00     0.210 HD
ENDBRANCH  16  22
BRANCH  17  24
HETATM   24  O   UNK N   1      24.567  42.244  54.017  0.00  0.00    -0.390 OA
HETATM   25  H   UNK N   1      23.872  41.703  53.560  0.00  0.00     0.210 HD
ENDBRANCH  17  24
BRANCH  18  26
HETATM   26  O   UNK N   1      25.225  39.686  52.924  0.00  0.00    -0.388 OA
HETATM   27  H   UNK N   1      24.694  40.267  52.319  0.00  0.00     0.210 HD
ENDBRANCH  18  26
ENDBRANCH  12  13
ENDBRANCH   9  12
BRANCH  11  28
HETATM   28  O   UNK N   1      29.991  37.350  56.585  0.00  0.00    -0.360 OA
HETATM   29  H   UNK N   1      30.660  37.050  57.207  0.00  0.00     0.217 HD
ENDBRANCH  11  28
BRANCH   6  30
HETATM   30  C   UNK N   1      31.005  41.989  59.349  0.00  0.00    -0.028 A 
HETATM   31  C   UNK N   1      31.399  42.956  58.404  0.00  0.00     0.012 A 
HETATM   32  C   UNK N   1      32.743  43.307  58.261  0.00  0.00     0.037 A 
HETATM   33  C   UNK N   1      33.713  42.719  59.074  0.00  0.00     0.065 A 
HETATM   34  C   UNK N   1      33.335  41.765  60.029  0.00  0.00     0.037 A 
HETATM   35  C   UNK N   1      31.993  41.396  60.163  0.00  0.00     0.012 A 
BRANCH  33  36
HETATM   36  O   UNK N   1      35.006  43.078  58.932  0.00  0.00    -0.361 OA
HETATM   37  H   UNK N   1      35.288  43.711  58.256  0.00  0.00     0.217 HD
ENDBRANCH  33  36
ENDBRANCH   6  30
TORSDOF 10
ENDMDL
MODEL 6
REMARK VINA RESULT:      -5.7      2.700      8.588
REMARK  10 active torsions:
REMARK  status: ('A' for Active; 'I' for Inactive)
REMARK    1  A    between atoms: C_6  and  C_7 
REMARK    2  A    between atoms: C_10  and  O_11 
REMARK    3  A    between atoms: C_17  and  O_18 
REMARK    4  A    between atoms: O_18  and  C_19 
REMARK    5  A    between atoms: C_21  and  C_31 
REMARK    6  A    between atoms: C_22  and  O_23 
REMARK    7  A    between atoms: C_25  and  O_26 
REMARK    8  A    between atoms: C_28  and  O_29 
REMARK    9  A    between atoms: C_31  and  O_32 
REMARK   10  A    between atoms: C_35  and  O_36 
ROOT
HETATM    1  O   UNK N   1      33.794  42.753  58.251  0.00  0.00    -0.292 OA
HETATM    2  C   UNK N   1      32.865  42.895  59.026  0.00  0.00     0.167 C 
HETATM    3  C   UNK N   1      31.880  44.015  58.902  0.00  0.00     0.076 A 
HETATM    4  C   UNK N   1      31.069  44.260  60.033  0.00  0.00     0.089 A 
HETATM    5  O   UNK N   1      31.221  43.517  61.162  0.00  0.00    -0.340 OA
HETATM    6  C   UNK N   1      32.368  42.785  61.441  0.00  0.00     0.169 C 
HETATM    7  C   UNK N   1      32.711  41.951  60.193  0.00  0.00     0.121 C 
HETATM    8  C   UNK N   1      30.105  45.268  60.016  0.00  0.00     0.074 A 
HETATM    9  C   UNK N   1      29.922  46.056  58.881  0.00  0.00     0.077 A 
HETATM   10  C   UNK N   1      30.734  45.839  57.753  0.00  0.00     0.074 A 
HETATM   11  C   UNK N   1      31.713  44.835  57.747  0.00  0.00     0.085 A 
ENDROOT
BRANCH   9  12
HETATM   12  O   UNK N   1      28.952  47.008  58.898  0.00  0.00    -0.318 OA
BRANCH  12  13
HETATM   13  C   UNK N   1      28.130  47.308  57.822  0.00  0.00     0.298 C 
HETATM   14  O   UNK N   1      28.319  48.645  57.354  0.00  0.00    -0.348 OA
HETATM   15  C   UNK N   1      27.778  49.659  58.206  0.00  0.00     0.179 C 
HETATM   16  C   UNK N   1      26.280  49.417  58.541  0.00  0.00     0.180 C 
HETATM   17  C   UNK N   1      26.100  48.007  59.133  0.00  0.00     0.183 C 
HETATM   18  C   UNK N   1      26.663  46.960  58.156  0.00  0.00     0.205 C 
BRANCH  15  19
HETATM   19  C   UNK N   1      28.656  49.922  59.448  0.00  0.00     0.198 C 
BRANCH  19  20
HETATM   20  O   UNK N   1      29.942  50.329  59.065  0.00  0.00    -0.398 OA
HETATM   21  H   UNK N   1      29.841  50.843  58.223  0.00  0.00     0.209 HD
ENDBRANCH  19  20
ENDBRANCH  15  19
BRANCH  16  22
HETATM   22  O   UNK N   1      25.458  49.593  57.405  0.00  0.00    -0.390 OA
HETATM   23  H   UNK N   1      24.792  50.308  57.580  0.00  0.00     0.210 HD
ENDBRANCH  16  22
BRANCH  17  24
HETATM   24  O   UNK N   1      24.759  47.746  59.470  0.00  0.00    -0.390 OA
HETATM   25  H   UNK N   1      24.314  47.334  58.684  0.00  0.00     0.210 HD
ENDBRANCH  17  24
BRANCH  18  26
HETATM   26  O   UNK N   1      25.899  46.931  56.978  0.00  0.00    -0.388 OA
HETATM   27  H   UNK N   1      25.428  46.057  56.961  0.00  0.00     0.210 HD
ENDBRANCH  18  26
ENDBRANCH  12  13
ENDBRANCH   9  12
BRANCH  11  28
HETATM   28  O   UNK N   1      32.443  44.683  56.619  0.00  0.00    -0.360 OA
HETATM   29  H   UNK N   1      32.602  43.848  56.170  0.00  0.00     0.217 HD
ENDBRANCH  11  28
BRANCH   6  30
HETATM   30  C   UNK N   1      33.466  43.727  61.932  0.00  0.00    -0.028 A 
HETATM   31  C   UNK N   1      34.761  43.590  61.397  0.00  0.00     0.012 A 
HETATM   32  C   UNK N   1      35.799  44.424  61.819  0.00  0.00     0.037 A 
HETATM   33  C   UNK N   1      35.557  45.424  62.762  0.00  0.00     0.065 A 
HETATM   34  C   UNK N   1      34.270  45.583  63.293  0.00  0.00     0.037 A 
HETATM   35  C   UNK N   1      33.232  44.737  62.888  0.00  0.00     0.012 A 
BRANCH  33  36
HETATM   36  O   UNK N   1      36.567  46.230  63.150  0.00  0.00    -0.361 OA
HETATM   37  H   UNK N   1      36.505  47.193  63.082  0.00  0.00     0.217 HD
ENDBRANCH  33  36
ENDBRANCH   6  30
TORSDOF 10
ENDMDL
MODEL 7
REMARK VINA RESULT:      -5.6     13.990     18.834
REMARK  10 active torsions:
REMARK  status: ('A' for Active; 'I' for Inactive)
REMARK    1  A    between atoms: C_6  and  C_7 
REMARK    2  A    between atoms: C_10  and  O_11 
REMARK    3  A    between atoms: C_17  and  O_18 
REMARK    4  A    between atoms: O_18  and  C_19 
REMARK    5  A    between atoms: C_21  and  C_31 
REMARK    6  A    between atoms: C_22  and  O_23 
REMARK    7  A    between atoms: C_25  and  O_26 
REMARK    8  A    between atoms: C_28  and  O_29 
REMARK    9  A    between atoms: C_31  and  O_32 
REMARK   10  A    between atoms: C_35  and  O_36 
ROOT
HETATM    1  O   UNK N   1      46.337  54.411  62.310  0.00  0.00    -0.292 OA
HETATM    2  C   UNK N   1      47.436  54.192  61.830  0.00  0.00     0.167 C 
HETATM    3  C   UNK N   1      47.732  54.396  60.378  0.00  0.00     0.076 A 
HETATM    4  C   UNK N   1      48.918  53.798  59.894  0.00  0.00     0.089 A 
HETATM    5  O   UNK N   1      49.706  53.064  60.725  0.00  0.00    -0.340 OA
HETATM    6  C   UNK N   1      49.253  52.526  61.923  0.00  0.00     0.169 C 
HETATM    7  C   UNK N   1      48.539  53.644  62.703  0.00  0.00     0.121 C 
HETATM    8  C   UNK N   1      49.298  53.943  58.560  0.00  0.00     0.074 A 
HETATM    9  C   UNK N   1      48.515  54.683  57.675  0.00  0.00     0.077 A 
HETATM   10  C   UNK N   1      47.322  55.268  58.135  0.00  0.00     0.074 A 
HETATM   11  C   UNK N   1      46.915  55.133  59.470  0.00  0.00     0.085 A 
ENDROOT
BRANCH   9  12
HETATM   12  O   UNK N   1      48.938  54.822  56.391  0.00  0.00    -0.318 OA
BRANCH  12  13
HETATM   13  C   UNK N   1      50.252  55.064  56.022  0.00  0.00     0.298 C 
HETATM   14  O   UNK N   1      50.510  56.456  55.821  0.00  0.00    -0.348 OA
HETATM   15  C   UNK N   1      49.946  57.002  54.626  0.00  0.00     0.179 C 
HETATM   16  C   UNK N   1      50.345  56.197  53.358  0.00  0.00     0.180 C 
HETATM   17  C   UNK N   1      49.977  54.714  53.546  0.00  0.00     0.183 C 
HETATM   18  C   UNK N   1      50.644  54.173  54.822  0.00  0.00     0.205 C 
BRANCH  15  19
HETATM   19  C   UNK N   1      48.428  57.255  54.747  0.00  0.00     0.198 C 
BRANCH  19  20
HETATM   20  O   UNK N   1      47.991  58.123  53.736  0.00  0.00    -0.398 OA
HETATM   21  H   UNK N   1      48.776  58.311  53.160  0.00  0.00     0.209 HD
ENDBRANCH  19  20
ENDBRANCH  15  19
BRANCH  16  22
HETATM   22  O   UNK N   1      51.720  56.340  53.062  0.00  0.00    -0.390 OA
HETATM   23  H   UNK N   1      51.848  57.072  52.405  0.00  0.00     0.210 HD
ENDBRANCH  16  22
BRANCH  17  24
HETATM   24  O   UNK N   1      50.304  53.945  52.414  0.00  0.00    -0.390 OA
HETATM   25  H   UNK N   1      49.713  53.147  52.398  0.00  0.00     0.210 HD
ENDBRANCH  17  24
BRANCH  18  26
HETATM   26  O   UNK N   1      52.041  54.158  54.675  0.00  0.00    -0.388 OA
HETATM   27  H   UNK N   1      52.363  55.073  54.886  0.00  0.00     0.210 HD
ENDBRANCH  18  26
ENDBRANCH  12  13
ENDBRANCH   9  12
BRANCH  11  28
HETATM   28  O   UNK N   1      45.762  55.736  59.835  0.00  0.00    -0.360 OA
HETATM   29  H   UNK N   1      45.447  55.829  60.738  0.00  0.00     0.217 HD
ENDBRANCH  11  28
BRANCH   6  30
HETATM   30  C   UNK N   1      48.419  51.278  61.637  0.00  0.00    -0.028 A 
HETATM   31  C   UNK N   1      47.468  50.870  62.590  0.00  0.00     0.012 A 
HETATM   32  C   UNK N   1      46.686  49.733  62.376  0.00  0.00     0.037 A 
HETATM   33  C   UNK N   1      46.822  48.998  61.197  0.00  0.00     0.065 A 
HETATM   34  C   UNK N   1      47.755  49.400  60.232  0.00  0.00     0.037 A 
HETATM   35  C   UNK N   1      48.554  50.527  60.450  0.00  0.00     0.012 A 
BRANCH  33  36
HETATM   36  O   UNK N   1      46.051  47.909  60.999  0.00  0.00    -0.361 OA
HETATM   37  H   UNK N   1      45.638  47.436  61.736  0.00  0.00     0.217 HD
ENDBRANCH  33  36
ENDBRANCH   6  30
TORSDOF 10
ENDMDL
MODEL 8
REMARK VINA RESULT:      -5.6      5.321     10.735
REMARK  10 active torsions:
REMARK  status: ('A' for Active; 'I' for Inactive)
REMARK    1  A    between atoms: C_6  and  C_7 
REMARK    2  A    between atoms: C_10  and  O_11 
REMARK    3  A    between atoms: C_17  and  O_18 
REMARK    4  A    between atoms: O_18  and  C_19 
REMARK    5  A    between atoms: C_21  and  C_31 
REMARK    6  A    between atoms: C_22  and  O_23 
REMARK    7  A    between atoms: C_25  and  O_26 
REMARK    8  A    between atoms: C_28  and  O_29 
REMARK    9  A    between atoms: C_31  and  O_32 
REMARK   10  A    between atoms: C_35  and  O_36 
ROOT
HETATM    1  O   UNK N   1      33.100  43.741  58.064  0.00  0.00    -0.292 OA
HETATM    2  C   UNK N   1      31.922  43.504  58.262  0.00  0.00     0.167 C 
HETATM    3  C   UNK N   1      30.989  43.096  57.165  0.00  0.00     0.076 A 
HETATM    4  C   UNK N   1      29.609  43.178  57.458  0.00  0.00     0.089 A 
HETATM    5  O   UNK N   1      29.189  43.631  58.669  0.00  0.00    -0.340 OA
HETATM    6  C   UNK N   1      29.989  44.387  59.517  0.00  0.00     0.169 C 
HETATM    7  C   UNK N   1      31.346  43.672  59.647  0.00  0.00     0.121 C 
HETATM    8  C   UNK N   1      28.655  42.803  56.512  0.00  0.00     0.074 A 
HETATM    9  C   UNK N   1      29.045  42.339  55.257  0.00  0.00     0.077 A 
HETATM   10  C   UNK N   1      30.414  42.269  54.942  0.00  0.00     0.074 A 
HETATM   11  C   UNK N   1      31.392  42.645  55.874  0.00  0.00     0.085 A 
ENDROOT
BRANCH   9  12
HETATM   12  O   UNK N   1      28.082  41.956  54.376  0.00  0.00    -0.318 OA
BRANCH  12  13
HETATM   13  C   UNK N   1      27.565  42.770  53.380  0.00  0.00     0.298 C 
HETATM   14  O   UNK N   1      26.221  42.420  53.041  0.00  0.00    -0.348 OA
HETATM   15  C   UNK N   1      26.088  41.211  52.290  0.00  0.00     0.179 C 
HETATM   16  C   UNK N   1      26.980  41.200  51.017  0.00  0.00     0.180 C 
HETATM   17  C   UNK N   1      28.443  41.483  51.404  0.00  0.00     0.183 C 
HETATM   18  C   UNK N   1      28.526  42.814  52.172  0.00  0.00     0.205 C 
BRANCH  15  19
HETATM   19  C   UNK N   1      26.242  39.949  53.165  0.00  0.00     0.198 C 
BRANCH  19  20
HETATM   20  O   UNK N   1      27.420  39.263  52.839  0.00  0.00    -0.398 OA
HETATM   21  H   UNK N   1      27.213  38.694  52.055  0.00  0.00     0.209 HD
ENDBRANCH  19  20
ENDBRANCH  15  19
BRANCH  16  22
HETATM   22  O   UNK N   1      26.525  42.130  50.056  0.00  0.00    -0.390 OA
HETATM   23  H   UNK N   1      25.972  41.666  49.375  0.00  0.00     0.210 HD
ENDBRANCH  16  22
BRANCH  17  24
HETATM   24  O   UNK N   1      29.295  41.466  50.285  0.00  0.00    -0.390 OA
HETATM   25  H   UNK N   1      29.609  42.393  50.117  0.00  0.00     0.210 HD
ENDBRANCH  17  24
BRANCH  18  26
HETATM   26  O   UNK N   1      28.187  43.885  51.330  0.00  0.00    -0.388 OA
HETATM   27  H   UNK N   1      28.733  44.663  51.617  0.00  0.00     0.210 HD
ENDBRANCH  18  26
ENDBRANCH  12  13
ENDBRANCH   9  12
BRANCH  11  28
HETATM   28  O   UNK N   1      32.686  42.537  55.497  0.00  0.00    -0.360 OA
HETATM   29  H   UNK N   1      33.019  41.938  54.822  0.00  0.00     0.217 HD
ENDBRANCH  11  28
BRANCH   6  30
HETATM   30  C   UNK N   1      30.044  45.829  59.014  0.00  0.00    -0.028 A 
HETATM   31  C   UNK N   1      29.600  46.858  59.865  0.00  0.00     0.012 A 
HETATM   32  C   UNK N   1      29.625  48.190  59.448  0.00  0.00     0.037 A 
HETATM   33  C   UNK N   1      30.116  48.521  58.184  0.00  0.00     0.065 A 
HETATM   34  C   UNK N   1      30.575  47.509  57.330  0.00  0.00     0.037 A 
HETATM   35  C   UNK N   1      30.534  46.171  57.736  0.00  0.00     0.012 A 
BRANCH  33  36
HETATM   36  O   UNK N   1      30.146  49.814  57.800  0.00  0.00    -0.361 OA
HETATM   37  H   UNK N   1      29.557  50.475  58.190  0.00  0.00     0.217 HD
ENDBRANCH  33  36
ENDBRANCH   6  30
TORSDOF 10
ENDMDL
MODEL 9
REMARK VINA RESULT:      -5.5      5.008      8.039
REMARK  10 active torsions:
REMARK  status: ('A' for Active; 'I' for Inactive)
REMARK    1  A    between atoms: C_6  and  C_7 
REMARK    2  A    between atoms: C_10  and  O_11 
REMARK    3  A    between atoms: C_17  and  O_18 
REMARK    4  A    between atoms: O_18  and  C_19 
REMARK    5  A    between atoms: C_21  and  C_31 
REMARK    6  A    between atoms: C_22  and  O_23 
REMARK    7  A    between atoms: C_25  and  O_26 
REMARK    8  A    between atoms: C_28  and  O_29 
REMARK    9  A    between atoms: C_31  and  O_32 
REMARK   10  A    between atoms: C_35  and  O_36 
ROOT
HETATM    1  O   UNK N   1      31.521  42.568  60.873  0.00  0.00    -0.292 OA
HETATM    2  C   UNK N   1      31.675  43.249  59.874  0.00  0.00     0.167 C 
HETATM    3  C   UNK N   1      31.014  44.581  59.702  0.00  0.00     0.076 A 
HETATM    4  C   UNK N   1      31.001  45.105  58.390  0.00  0.00     0.089 A 
HETATM    5  O   UNK N   1      31.544  44.398  57.362  0.00  0.00    -0.340 OA
HETATM    6  C   UNK N   1      31.774  43.029  57.419  0.00  0.00     0.169 C 
HETATM    7  C   UNK N   1      32.515  42.729  58.734  0.00  0.00     0.121 C 
HETATM    8  C   UNK N   1      30.427  46.347  58.121  0.00  0.00     0.074 A 
HETATM    9  C   UNK N   1      29.854  47.100  59.146  0.00  0.00     0.077 A 
HETATM   10  C   UNK N   1      29.841  46.585  60.455  0.00  0.00     0.074 A 
HETATM   11  C   UNK N   1      30.407  45.336  60.748  0.00  0.00     0.085 A 
ENDROOT
BRANCH   9  12
HETATM   12  O   UNK N   1      29.333  48.319  58.845  0.00  0.00    -0.318 OA
BRANCH  12  13
HETATM   13  C   UNK N   1      28.146  48.514  58.157  0.00  0.00     0.298 C 
HETATM   14  O   UNK N   1      28.337  48.522  56.741  0.00  0.00    -0.348 OA
HETATM   15  C   UNK N   1      28.968  49.698  56.229  0.00  0.00     0.179 C 
HETATM   16  C   UNK N   1      28.251  51.001  56.677  0.00  0.00     0.180 C 
HETATM   17  C   UNK N   1      28.133  51.029  58.212  0.00  0.00     0.183 C 
HETATM   18  C   UNK N   1      27.412  49.761  58.699  0.00  0.00     0.205 C 
BRANCH  15  19
HETATM   19  C   UNK N   1      30.491  49.712  56.479  0.00  0.00     0.198 C 
BRANCH  19  20
HETATM   20  O   UNK N   1      31.186  49.367  55.311  0.00  0.00    -0.398 OA
HETATM   21  H   UNK N   1      31.614  50.196  54.977  0.00  0.00     0.209 HD
ENDBRANCH  19  20
ENDBRANCH  15  19
BRANCH  16  22
HETATM   22  O   UNK N   1      26.979  51.129  56.074  0.00  0.00    -0.390 OA
HETATM   23  H   UNK N   1      26.343  51.540  56.715  0.00  0.00     0.210 HD
ENDBRANCH  16  22
BRANCH  17  24
HETATM   24  O   UNK N   1      27.504  52.202  58.670  0.00  0.00    -0.390 OA
HETATM   25  H   UNK N   1      26.651  52.311  58.175  0.00  0.00     0.210 HD
ENDBRANCH  17  24
BRANCH  18  26
HETATM   26  O   UNK N   1      26.078  49.758  58.258  0.00  0.00    -0.388 OA
HETATM   27  H   UNK N   1      25.904  48.862  57.868  0.00  0.00     0.210 HD
ENDBRANCH  18  26
ENDBRANCH  12  13
ENDBRANCH   9  12
BRANCH  11  28
HETATM   28  O   UNK N   1      30.364  44.919  62.034  0.00  0.00    -0.360 OA
HETATM   29  H   UNK N   1      30.548  45.468  62.801  0.00  0.00     0.217 HD
ENDBRANCH  11  28
BRANCH   6  30
HETATM   30  C   UNK N   1      30.457  42.283  57.214  0.00  0.00    -0.028 A 
HETATM   31  C   UNK N   1      29.617  42.675  56.154  0.00  0.00     0.012 A 
HETATM   32  C   UNK N   1      28.400  42.028  55.930  0.00  0.00     0.037 A 
HETATM   33  C   UNK N   1      28.012  40.962  56.744  0.00  0.00     0.065 A 
HETATM   34  C   UNK N   1      28.843  40.550  57.794  0.00  0.00     0.037 A 
HETATM   35  C   UNK N   1      30.054  41.209  58.034  0.00  0.00     0.012 A 
BRANCH  33  36
HETATM   36  O   UNK N   1      26.839  40.338  56.508  0.00  0.00    -0.361 OA
HETATM   37  H   UNK N   1      26.359  39.875  57.208  0.00  0.00     0.217 HD
ENDBRANCH  33  36
ENDBRANCH   6  30
TORSDOF 10
ENDMDL
