MODEL 1
REMARK VINA RESULT:      -6.0      0.000      0.000
REMARK  10 active torsions:
REMARK  status: ('A' for Active; 'I' for Inactive)
REMARK    1  A    between atoms: C_6  and  C_7 
REMARK    2  A    between atoms: C_10  and  O_11 
REMARK    3  A    between atoms: C_17  and  O_18 
REMARK    4  A    between atoms: C_21  and  O_22 
REMARK    5  A    between atoms: O_22  and  C_23 
REMARK    6  A    between atoms: C_23  and  C_24 
REMARK    7  A    between atoms: C_26  and  O_27 
REMARK    8  A    between atoms: C_29  and  O_30 
REMARK    9  A    between atoms: C_32  and  O_33 
REMARK   10  A    between atoms: C_35  and  O_36 
ROOT
HETATM    1  O   UNK N   1      31.236  45.124  63.058  0.00  0.00    -0.292 OA
HETATM    2  C   UNK N   1      30.966  44.394  62.117  0.00  0.00     0.167 C 
HETATM    3  C   UNK N   1      32.030  43.767  61.285  0.00  0.00     0.077 A 
HETATM    4  C   UNK N   1      31.617  43.150  60.085  0.00  0.00     0.089 A 
HETATM    5  O   UNK N   1      30.309  43.179  59.715  0.00  0.00    -0.340 OA
HETATM    6  C   UNK N   1      29.407  44.114  60.210  0.00  0.00     0.169 C 
HETATM    7  C   UNK N   1      29.526  44.118  61.748  0.00  0.00     0.121 C 
HETATM    8  C   UNK N   1      32.543  42.520  59.256  0.00  0.00     0.074 A 
HETATM    9  C   UNK N   1      33.895  42.515  59.590  0.00  0.00     0.071 A 
HETATM   10  C   UNK N   1      34.326  43.139  60.768  0.00  0.00     0.074 A 
HETATM   11  C   UNK N   1      33.404  43.773  61.633  0.00  0.00     0.088 A 
ENDROOT
BRANCH  11  12
HETATM   12  O   UNK N   1      33.817  44.374  62.786  0.00  0.00    -0.347 OA
BRANCH  12  13
HETATM   13  C   UNK N   1      35.007  44.081  63.438  0.00  0.00     0.210 C 
BRANCH  13  14
HETATM   14  C   UNK N   1      36.021  45.223  63.307  0.00  0.00     0.180 C 
HETATM   15  O   UNK N   1      36.992  44.860  62.332  0.00  0.00    -0.349 OA
HETATM   16  C   UNK N   1      38.031  45.827  62.240  0.00  0.00     0.288 C 
HETATM   17  C   UNK N   1      37.468  47.191  61.789  0.00  0.00     0.204 C 
HETATM   18  C   UNK N   1      36.384  47.666  62.775  0.00  0.00     0.183 C 
HETATM   19  C   UNK N   1      35.325  46.558  62.931  0.00  0.00     0.180 C 
BRANCH  16  20
HETATM   20  O   UNK N   1      38.728  45.939  63.458  0.00  0.00    -0.369 OA
HETATM   21  H   UNK N   1      38.070  46.235  64.139  0.00  0.00     0.212 HD
ENDBRANCH  16  20
BRANCH  17  22
HETATM   22  O   UNK N   1      38.489  48.147  61.644  0.00  0.00    -0.388 OA
HETATM   23  H   UNK N   1      38.562  48.370  60.679  0.00  0.00     0.210 HD
ENDBRANCH  17  22
BRANCH  18  24
HETATM   24  O   UNK N   1      35.801  48.873  62.351  0.00  0.00    -0.390 OA
HETATM   25  H   UNK N   1      35.570  48.775  61.390  0.00  0.00     0.210 HD
ENDBRANCH  18  24
BRANCH  19  26
HETATM   26  O   UNK N   1      34.360  46.927  63.886  0.00  0.00    -0.390 OA
HETATM   27  H   UNK N   1      34.033  46.095  64.319  0.00  0.00     0.210 HD
ENDBRANCH  19  26
ENDBRANCH  13  14
ENDBRANCH  12  13
ENDBRANCH  11  12
BRANCH   9  28
HETATM   28  O   UNK N   1      34.780  41.915  58.768  0.00  0.00    -0.361 OA
HETATM   29  H   UNK N   1      34.636  41.871  57.812  0.00  0.00     0.217 HD
ENDBRANCH   9  28
BRANCH   6  30
HETATM   30  C   UNK N   1      29.630  45.462  59.520  0.00  0.00    -0.028 A 
HETATM   31  C   UNK N   1      29.240  46.642  60.184  0.00  0.00     0.012 A 
HETATM   32  C   UNK N   1      29.434  47.892  59.592  0.00  0.00     0.037 A 
HETATM   33  C   UNK N   1      30.040  47.990  58.338  0.00  0.00     0.065 A 
HETATM   34  C   UNK N   1      30.446  46.826  57.671  0.00  0.00     0.037 A 
HETATM   35  C   UNK N   1      30.240  45.570  58.252  0.00  0.00     0.012 A 
BRANCH  33  36
HETATM   36  O   UNK N   1      30.231  49.204  57.784  0.00  0.00    -0.361 OA
HETATM   37  H   UNK N   1      31.109  49.611  57.737  0.00  0.00     0.217 HD
ENDBRANCH  33  36
ENDBRANCH   6  30
TORSDOF 10
ENDMDL
MODEL 2
REMARK VINA RESULT:      -5.8     17.677     21.547
REMARK  10 active torsions:
REMARK  status: ('A' for Active; 'I' for Inactive)
REMARK    1  A    between atoms: C_6  and  C_7 
REMARK    2  A    between atoms: C_10  and  O_11 
REMARK    3  A    between atoms: C_17  and  O_18 
REMARK    4  A    between atoms: C_21  and  O_22 
REMARK    5  A    between atoms: O_22  and  C_23 
REMARK    6  A    between atoms: C_23  and  C_24 
REMARK    7  A    between atoms: C_26  and  O_27 
REMARK    8  A    between atoms: C_29  and  O_30 
REMARK    9  A    between atoms: C_32  and  O_33 
REMARK   10  A    between atoms: C_35  and  O_36 
ROOT
HETATM    1  O   UNK N   1      31.499  49.903  40.992  0.00  0.00    -0.292 OA
HETATM    2  C   UNK N   1      31.686  50.023  42.193  0.00  0.00     0.167 C 
HETATM    3  C   UNK N   1      31.772  51.362  42.838  0.00  0.00     0.077 A 
HETATM    4  C   UNK N   1      32.233  51.395  44.172  0.00  0.00     0.089 A 
HETATM    5  O   UNK N   1      32.612  50.248  44.795  0.00  0.00    -0.340 OA
HETATM    6  C   UNK N   1      32.971  49.097  44.101  0.00  0.00     0.169 C 
HETATM    7  C   UNK N   1      31.863  48.803  43.068  0.00  0.00     0.121 C 
HETATM    8  C   UNK N   1      32.324  52.603  44.861  0.00  0.00     0.074 A 
HETATM    9  C   UNK N   1      31.984  53.798  44.231  0.00  0.00     0.071 A 
HETATM   10  C   UNK N   1      31.542  53.786  42.902  0.00  0.00     0.074 A 
HETATM   11  C   UNK N   1      31.427  52.572  42.186  0.00  0.00     0.088 A 
ENDROOT
BRANCH  11  12
HETATM   12  O   UNK N   1      30.988  52.554  40.893  0.00  0.00    -0.347 OA
BRANCH  12  13
HETATM   13  C   UNK N   1      30.146  53.508  40.341  0.00  0.00     0.210 C 
BRANCH  13  14
HETATM   14  C   UNK N   1      28.672  53.121  40.496  0.00  0.00     0.180 C 
HETATM   15  O   UNK N   1      27.867  54.228  40.106  0.00  0.00    -0.349 OA
HETATM   16  C   UNK N   1      26.486  53.978  40.332  0.00  0.00     0.288 C 
HETATM   17  C   UNK N   1      26.001  52.782  39.486  0.00  0.00     0.204 C 
HETATM   18  C   UNK N   1      26.831  51.529  39.820  0.00  0.00     0.183 C 
HETATM   19  C   UNK N   1      28.328  51.858  39.663  0.00  0.00     0.180 C 
BRANCH  16  20
HETATM   20  O   UNK N   1      26.225  53.774  41.700  0.00  0.00    -0.369 OA
HETATM   21  H   UNK N   1      25.593  53.011  41.762  0.00  0.00     0.212 HD
ENDBRANCH  16  20
BRANCH  17  22
HETATM   22  O   UNK N   1      24.624  52.553  39.659  0.00  0.00    -0.388 OA
HETATM   23  H   UNK N   1      24.166  52.800  38.814  0.00  0.00     0.210 HD
ENDBRANCH  17  22
BRANCH  18  24
HETATM   24  O   UNK N   1      26.460  50.440  39.012  0.00  0.00    -0.390 OA
HETATM   25  H   UNK N   1      26.628  49.609  39.531  0.00  0.00     0.210 HD
ENDBRANCH  18  24
BRANCH  19  26
HETATM   26  O   UNK N   1      29.118  50.757  40.038  0.00  0.00    -0.390 OA
HETATM   27  H   UNK N   1      28.701  50.347  40.840  0.00  0.00     0.210 HD
ENDBRANCH  19  26
ENDBRANCH  13  14
ENDBRANCH  12  13
ENDBRANCH  11  12
BRANCH   9  28
HETATM   28  O   UNK N   1      32.094  54.959  44.908  0.00  0.00    -0.361 OA
HETATM   29  H   UNK N   1      32.513  55.739  44.516  0.00  0.00     0.217 HD
ENDBRANCH   9  28
BRANCH   6  30
HETATM   30  C   UNK N   1      34.384  49.255  43.535  0.00  0.00    -0.028 A 
HETATM   31  C   UNK N   1      35.069  48.112  43.077  0.00  0.00     0.012 A 
HETATM   32  C   UNK N   1      36.357  48.215  42.547  0.00  0.00     0.037 A 
HETATM   33  C   UNK N   1      36.976  49.462  42.442  0.00  0.00     0.065 A 
HETATM   34  C   UNK N   1      36.302  50.610  42.879  0.00  0.00     0.037 A 
HETATM   35  C   UNK N   1      35.019  50.511  43.426  0.00  0.00     0.012 A 
BRANCH  33  36
HETATM   36  O   UNK N   1      38.215  49.547  41.917  0.00  0.00    -0.361 OA
HETATM   37  H   UNK N   1      39.006  49.568  42.476  0.00  0.00     0.217 HD
ENDBRANCH  33  36
ENDBRANCH   6  30
TORSDOF 10
ENDMDL
MODEL 3
REMARK VINA RESULT:      -5.6      4.997      9.198
REMARK  10 active torsions:
REMARK  status: ('A' for Active; 'I' for Inactive)
REMARK    1  A    between atoms: C_6  and  C_7 
REMARK    2  A    between atoms: C_10  and  O_11 
REMARK    3  A    between atoms: C_17  and  O_18 
REMARK    4  A    between atoms: C_21  and  O_22 
REMARK    5  A    between atoms: O_22  and  C_23 
REMARK    6  A    between atoms: C_23  and  C_24 
REMARK    7  A    between atoms: C_26  and  O_27 
REMARK    8  A    between atoms: C_29  and  O_30 
REMARK    9  A    between atoms: C_32  and  O_33 
REMARK   10  A    between atoms: C_35  and  O_36 
ROOT
HETATM    1  O   UNK N   1      31.791  42.804  56.133  0.00  0.00    -0.292 OA
HETATM    2  C   UNK N   1      31.544  42.708  57.325  0.00  0.00     0.167 C 
HETATM    3  C   UNK N   1      30.325  42.007  57.816  0.00  0.00     0.077 A 
HETATM    4  C   UNK N   1      30.007  42.167  59.181  0.00  0.00     0.089 A 
HETATM    5  O   UNK N   1      30.772  42.963  59.975  0.00  0.00    -0.340 OA
HETATM    6  C   UNK N   1      31.603  43.957  59.467  0.00  0.00     0.169 C 
HETATM    7  C   UNK N   1      32.464  43.328  58.352  0.00  0.00     0.121 C 
HETATM    8  C   UNK N   1      28.896  41.529  59.730  0.00  0.00     0.074 A 
HETATM    9  C   UNK N   1      28.071  40.744  58.929  0.00  0.00     0.071 A 
HETATM   10  C   UNK N   1      28.361  40.588  57.568  0.00  0.00     0.074 A 
HETATM   11  C   UNK N   1      29.490  41.214  56.990  0.00  0.00     0.088 A 
ENDROOT
BRANCH  11  12
HETATM   12  O   UNK N   1      29.783  41.059  55.666  0.00  0.00    -0.347 OA
BRANCH  12  13
HETATM   13  C   UNK N   1      28.913  40.513  54.732  0.00  0.00     0.210 C 
BRANCH  13  14
HETATM   14  C   UNK N   1      28.697  41.453  53.542  0.00  0.00     0.180 C 
HETATM   15  O   UNK N   1      28.360  40.673  52.401  0.00  0.00    -0.349 OA
HETATM   16  C   UNK N   1      28.255  41.472  51.230  0.00  0.00     0.288 C 
HETATM   17  C   UNK N   1      27.127  42.515  51.379  0.00  0.00     0.204 C 
HETATM   18  C   UNK N   1      27.390  43.403  52.609  0.00  0.00     0.183 C 
HETATM   19  C   UNK N   1      27.598  42.506  53.844  0.00  0.00     0.180 C 
BRANCH  16  20
HETATM   20  O   UNK N   1      29.483  42.090  50.926  0.00  0.00    -0.369 OA
HETATM   21  H   UNK N   1      29.411  43.034  51.222  0.00  0.00     0.212 HD
ENDBRANCH  16  20
BRANCH  17  22
HETATM   22  O   UNK N   1      26.976  43.282  50.209  0.00  0.00    -0.388 OA
HETATM   23  H   UNK N   1      27.785  43.849  50.111  0.00  0.00     0.210 HD
ENDBRANCH  17  22
BRANCH  18  24
HETATM   24  O   UNK N   1      26.341  44.317  52.813  0.00  0.00    -0.390 OA
HETATM   25  H   UNK N   1      25.904  44.475  51.935  0.00  0.00     0.210 HD
ENDBRANCH  18  24
BRANCH  19  26
HETATM   26  O   UNK N   1      27.919  43.283  54.972  0.00  0.00    -0.390 OA
HETATM   27  H   UNK N   1      28.663  43.889  54.717  0.00  0.00     0.210 HD
ENDBRANCH  19  26
ENDBRANCH  13  14
ENDBRANCH  12  13
ENDBRANCH  11  12
BRANCH   9  28
HETATM   28  O   UNK N   1      26.992  40.146  59.474  0.00  0.00    -0.361 OA
HETATM   29  H   UNK N   1      26.177  40.636  59.657  0.00  0.00     0.217 HD
ENDBRANCH   9  28
BRANCH   6  30
HETATM   30  C   UNK N   1      30.766  45.171  59.058  0.00  0.00    -0.028 A 
HETATM   31  C   UNK N   1      29.714  45.590  59.897  0.00  0.00     0.012 A 
HETATM   32  C   UNK N   1      28.932  46.698  59.563  0.00  0.00     0.037 A 
HETATM   33  C   UNK N   1      29.200  47.422  58.400  0.00  0.00     0.065 A 
HETATM   34  C   UNK N   1      30.252  47.027  57.563  0.00  0.00     0.037 A 
HETATM   35  C   UNK N   1      31.028  45.908  57.884  0.00  0.00     0.012 A 
BRANCH  33  36
HETATM   36  O   UNK N   1      28.444  48.497  58.097  0.00  0.00    -0.361 OA
HETATM   37  H   UNK N   1      27.949  48.980  58.775  0.00  0.00     0.217 HD
ENDBRANCH  33  36
ENDBRANCH   6  30
TORSDOF 10
ENDMDL
MODEL 4
REMARK VINA RESULT:      -5.6      4.837      7.721
REMARK  10 active torsions:
REMARK  status: ('A' for Active; 'I' for Inactive)
REMARK    1  A    between atoms: C_6  and  C_7 
REMARK    2  A    between atoms: C_10  and  O_11 
REMARK    3  A    between atoms: C_17  and  O_18 
REMARK    4  A    between atoms: C_21  and  O_22 
REMARK    5  A    between atoms: O_22  and  C_23 
REMARK    6  A    between atoms: C_23  and  C_24 
REMARK    7  A    between atoms: C_26  and  O_27 
REMARK    8  A    between atoms: C_29  and  O_30 
REMARK    9  A    between atoms: C_32  and  O_33 
REMARK   10  A    between atoms: C_35  and  O_36 
ROOT
HETATM    1  O   UNK N   1      27.116  44.900  57.336  0.00  0.00    -0.292 OA
HETATM    2  C   UNK N   1      27.752  43.861  57.417  0.00  0.00     0.167 C 
HETATM    3  C   UNK N   1      29.229  43.862  57.607  0.00  0.00     0.077 A 
HETATM    4  C   UNK N   1      29.892  42.627  57.440  0.00  0.00     0.089 A 
HETATM    5  O   UNK N   1      29.193  41.517  57.081  0.00  0.00    -0.340 OA
HETATM    6  C   UNK N   1      27.946  41.578  56.468  0.00  0.00     0.169 C 
HETATM    7  C   UNK N   1      27.056  42.524  57.300  0.00  0.00     0.121 C 
HETATM    8  C   UNK N   1      31.270  42.532  57.620  0.00  0.00     0.074 A 
HETATM    9  C   UNK N   1      32.015  43.663  57.944  0.00  0.00     0.071 A 
HETATM   10  C   UNK N   1      31.377  44.901  58.096  0.00  0.00     0.074 A 
HETATM   11  C   UNK N   1      29.977  45.021  57.932  0.00  0.00     0.088 A 
ENDROOT
BRANCH  11  12
HETATM   12  O   UNK N   1      29.349  46.222  58.088  0.00  0.00    -0.347 OA
BRANCH  12  13
HETATM   13  C   UNK N   1      30.007  47.432  58.256  0.00  0.00     0.210 C 
BRANCH  13  14
HETATM   14  C   UNK N   1      29.024  48.585  58.485  0.00  0.00     0.180 C 
HETATM   15  O   UNK N   1      29.599  49.496  59.414  0.00  0.00    -0.349 OA
HETATM   16  C   UNK N   1      28.693  50.536  59.759  0.00  0.00     0.288 C 
HETATM   17  C   UNK N   1      28.323  51.374  58.517  0.00  0.00     0.204 C 
HETATM   18  C   UNK N   1      27.707  50.468  57.435  0.00  0.00     0.183 C 
HETATM   19  C   UNK N   1      28.667  49.296  57.153  0.00  0.00     0.180 C 
BRANCH  16  20
HETATM   20  O   UNK N   1      27.544  50.019  60.386  0.00  0.00    -0.369 OA
HETATM   21  H   UNK N   1      26.776  50.565  60.076  0.00  0.00     0.212 HD
ENDBRANCH  16  20
BRANCH  17  22
HETATM   22  O   UNK N   1      27.466  52.438  58.850  0.00  0.00    -0.388 OA
HETATM   23  H   UNK N   1      27.539  52.593  59.827  0.00  0.00     0.210 HD
ENDBRANCH  17  22
BRANCH  18  24
HETATM   24  O   UNK N   1      27.426  51.191  56.262  0.00  0.00    -0.390 OA
HETATM   25  H   UNK N   1      28.228  51.141  55.678  0.00  0.00     0.210 HD
ENDBRANCH  18  24
BRANCH  19  26
HETATM   26  O   UNK N   1      28.099  48.404  56.225  0.00  0.00    -0.390 OA
HETATM   27  H   UNK N   1      28.727  48.325  55.460  0.00  0.00     0.210 HD
ENDBRANCH  19  26
ENDBRANCH  13  14
ENDBRANCH  12  13
ENDBRANCH  11  12
BRANCH   9  28
HETATM   28  O   UNK N   1      33.351  43.556  58.100  0.00  0.00    -0.361 OA
HETATM   29  H   UNK N   1      33.959  43.647  57.352  0.00  0.00     0.217 HD
ENDBRANCH   9  28
BRANCH   6  30
HETATM   30  C   UNK N   1      28.114  41.947  54.992  0.00  0.00    -0.028 A 
HETATM   31  C   UNK N   1      27.047  42.575  54.319  0.00  0.00     0.012 A 
HETATM   32  C   UNK N   1      27.164  42.935  52.974  0.00  0.00     0.037 A 
HETATM   33  C   UNK N   1      28.353  42.695  52.284  0.00  0.00     0.065 A 
HETATM   34  C   UNK N   1      29.428  42.084  52.943  0.00  0.00     0.037 A 
HETATM   35  C   UNK N   1      29.312  41.707  54.285  0.00  0.00     0.012 A 
BRANCH  33  36
HETATM   36  O   UNK N   1      28.455  43.059  50.989  0.00  0.00    -0.361 OA
HETATM   37  H   UNK N   1      28.713  43.956  50.729  0.00  0.00     0.217 HD
ENDBRANCH  33  36
ENDBRANCH   6  30
TORSDOF 10
ENDMDL
MODEL 5
REMARK VINA RESULT:      -5.6      5.210      7.708
REMARK  10 active torsions:
REMARK  status: ('A' for Active; 'I' for Inactive)
REMARK    1  A    between atoms: C_6  and  C_7 
REMARK    2  A    between atoms: C_10  and  O_11 
REMARK    3  A    between atoms: C_17  and  O_18 
REMARK    4  A    between atoms: C_21  and  O_22 
REMARK    5  A    between atoms: O_22  and  C_23 
REMARK    6  A    between atoms: C_23  and  C_24 
REMARK    7  A    between atoms: C_26  and  O_27 
REMARK    8  A    between atoms: C_29  and  O_30 
REMARK    9  A    between atoms: C_32  and  O_33 
REMARK   10  A    between atoms: C_35  and  O_36 
ROOT
HETATM    1  O   UNK N   1      26.652  43.118  57.581  0.00  0.00    -0.292 OA
HETATM    2  C   UNK N   1      27.711  42.555  57.349  0.00  0.00     0.167 C 
HETATM    3  C   UNK N   1      29.007  43.286  57.382  0.00  0.00     0.077 A 
HETATM    4  C   UNK N   1      30.131  42.608  56.863  0.00  0.00     0.089 A 
HETATM    5  O   UNK N   1      29.995  41.366  56.327  0.00  0.00    -0.340 OA
HETATM    6  C   UNK N   1      28.777  40.869  55.877  0.00  0.00     0.169 C 
HETATM    7  C   UNK N   1      27.736  41.085  56.994  0.00  0.00     0.121 C 
HETATM    8  C   UNK N   1      31.389  43.209  56.873  0.00  0.00     0.074 A 
HETATM    9  C   UNK N   1      31.546  44.498  57.375  0.00  0.00     0.071 A 
HETATM   10  C   UNK N   1      30.439  45.193  57.878  0.00  0.00     0.074 A 
HETATM   11  C   UNK N   1      29.155  44.600  57.891  0.00  0.00     0.088 A 
ENDROOT
BRANCH  11  12
HETATM   12  O   UNK N   1      28.074  45.269  58.389  0.00  0.00    -0.347 OA
BRANCH  12  13
HETATM   13  C   UNK N   1      27.455  46.335  57.753  0.00  0.00     0.210 C 
BRANCH  13  14
HETATM   14  C   UNK N   1      28.360  47.571  57.707  0.00  0.00     0.180 C 
HETATM   15  O   UNK N   1      27.880  48.450  56.697  0.00  0.00    -0.349 OA
HETATM   16  C   UNK N   1      28.740  49.569  56.522  0.00  0.00     0.288 C 
HETATM   17  C   UNK N   1      28.815  50.408  57.814  0.00  0.00     0.204 C 
HETATM   18  C   UNK N   1      29.308  49.535  58.982  0.00  0.00     0.183 C 
HETATM   19  C   UNK N   1      28.418  48.281  59.085  0.00  0.00     0.180 C 
BRANCH  16  20
HETATM   20  O   UNK N   1      30.021  49.162  56.102  0.00  0.00    -0.369 OA
HETATM   21  H   UNK N   1      29.898  48.342  55.557  0.00  0.00     0.212 HD
ENDBRANCH  16  20
BRANCH  17  22
HETATM   22  O   UNK N   1      29.622  51.547  57.643  0.00  0.00    -0.388 OA
HETATM   23  H   UNK N   1      29.226  52.094  56.915  0.00  0.00     0.210 HD
ENDBRANCH  17  22
BRANCH  18  24
HETATM   24  O   UNK N   1      29.318  50.254  60.190  0.00  0.00    -0.390 OA
HETATM   25  H   UNK N   1      30.252  50.266  60.526  0.00  0.00     0.210 HD
ENDBRANCH  18  24
BRANCH  19  26
HETATM   26  O   UNK N   1      28.890  47.421  60.093  0.00  0.00    -0.390 OA
HETATM   27  H   UNK N   1      28.230  46.686  60.195  0.00  0.00     0.210 HD
ENDBRANCH  19  26
ENDBRANCH  13  14
ENDBRANCH  12  13
ENDBRANCH  11  12
BRANCH   9  28
HETATM   28  O   UNK N   1      32.768  45.070  57.363  0.00  0.00    -0.361 OA
HETATM   29  H   UNK N   1      33.339  45.067  58.145  0.00  0.00     0.217 HD
ENDBRANCH   9  28
BRANCH   6  30
HETATM   30  C   UNK N   1      28.437  41.489  54.520  0.00  0.00    -0.028 A 
HETATM   31  C   UNK N   1      29.481  41.774  53.617  0.00  0.00     0.012 A 
HETATM   32  C   UNK N   1      29.211  42.333  52.365  0.00  0.00     0.037 A 
HETATM   33  C   UNK N   1      27.895  42.596  51.983  0.00  0.00     0.065 A 
HETATM   34  C   UNK N   1      26.844  42.306  52.863  0.00  0.00     0.037 A 
HETATM   35  C   UNK N   1      27.109  41.761  54.124  0.00  0.00     0.012 A 
BRANCH  33  36
HETATM   36  O   UNK N   1      27.649  43.125  50.767  0.00  0.00    -0.361 OA
HETATM   37  H   UNK N   1      28.272  43.731  50.338  0.00  0.00     0.217 HD
ENDBRANCH  33  36
ENDBRANCH   6  30
TORSDOF 10
ENDMDL
MODEL 6
REMARK VINA RESULT:      -5.4     13.990     18.988
REMARK  10 active torsions:
REMARK  status: ('A' for Active; 'I' for Inactive)
REMARK    1  A    between atoms: C_6  and  C_7 
REMARK    2  A    between atoms: C_10  and  O_11 
REMARK    3  A    between atoms: C_17  and  O_18 
REMARK    4  A    between atoms: C_21  and  O_22 
REMARK    5  A    between atoms: O_22  and  C_23 
REMARK    6  A    between atoms: C_23  and  C_24 
REMARK    7  A    between atoms: C_26  and  O_27 
REMARK    8  A    between atoms: C_29  and  O_30 
REMARK    9  A    between atoms: C_32  and  O_33 
REMARK   10  A    between atoms: C_35  and  O_36 
ROOT
HETATM    1  O   UNK N   1      50.754  53.483  58.935  0.00  0.00    -0.292 OA
HETATM    2  C   UNK N   1      50.606  54.657  58.634  0.00  0.00     0.167 C 
HETATM    3  C   UNK N   1      49.265  55.305  58.651  0.00  0.00     0.077 A 
HETATM    4  C   UNK N   1      49.168  56.580  58.054  0.00  0.00     0.089 A 
HETATM    5  O   UNK N   1      50.255  57.145  57.464  0.00  0.00    -0.340 OA
HETATM    6  C   UNK N   1      51.352  56.403  57.038  0.00  0.00     0.169 C 
HETATM    7  C   UNK N   1      51.790  55.495  58.207  0.00  0.00     0.121 C 
HETATM    8  C   UNK N   1      47.957  57.268  58.044  0.00  0.00     0.074 A 
HETATM    9  C   UNK N   1      46.818  56.692  58.602  0.00  0.00     0.071 A 
HETATM   10  C   UNK N   1      46.891  55.420  59.183  0.00  0.00     0.074 A 
HETATM   11  C   UNK N   1      48.112  54.707  59.218  0.00  0.00     0.088 A 
ENDROOT
BRANCH  11  12
HETATM   12  O   UNK N   1      48.191  53.471  59.791  0.00  0.00    -0.347 OA
BRANCH  12  13
HETATM   13  C   UNK N   1      47.615  53.135  61.007  0.00  0.00     0.210 C 
BRANCH  13  14
HETATM   14  C   UNK N   1      47.461  51.618  61.162  0.00  0.00     0.180 C 
HETATM   15  O   UNK N   1      46.118  51.263  60.854  0.00  0.00    -0.349 OA
HETATM   16  C   UNK N   1      45.873  49.882  61.085  0.00  0.00     0.288 C 
HETATM   17  C   UNK N   1      46.762  49.009  60.175  0.00  0.00     0.204 C 
HETATM   18  C   UNK N   1      48.247  49.335  60.418  0.00  0.00     0.183 C 
HETATM   19  C   UNK N   1      48.463  50.852  60.258  0.00  0.00     0.180 C 
BRANCH  16  20
HETATM   20  O   UNK N   1      46.057  49.556  62.442  0.00  0.00    -0.369 OA
HETATM   21  H   UNK N   1      45.560  50.233  62.971  0.00  0.00     0.212 HD
ENDBRANCH  16  20
BRANCH  17  22
HETATM   22  O   UNK N   1      46.496  47.640  60.355  0.00  0.00    -0.388 OA
HETATM   23  H   UNK N   1      46.748  47.168  59.519  0.00  0.00     0.210 HD
ENDBRANCH  17  22
BRANCH  18  24
HETATM   24  O   UNK N   1      49.079  48.607  59.551  0.00  0.00    -0.390 OA
HETATM   25  H   UNK N   1      48.856  48.877  58.622  0.00  0.00     0.210 HD
ENDBRANCH  18  24
BRANCH  19  26
HETATM   26  O   UNK N   1      49.794  51.196  60.552  0.00  0.00    -0.390 OA
HETATM   27  H   UNK N   1      49.930  52.140  60.276  0.00  0.00     0.210 HD
ENDBRANCH  19  26
ENDBRANCH  13  14
ENDBRANCH  12  13
ENDBRANCH  11  12
BRANCH   9  28
HETATM   28  O   UNK N   1      45.650  57.366  58.569  0.00  0.00    -0.361 OA
HETATM   29  H   UNK N   1      44.916  57.139  59.157  0.00  0.00     0.217 HD
ENDBRANCH   9  28
BRANCH   6  30
HETATM   30  C   UNK N   1      51.015  55.687  55.729  0.00  0.00    -0.028 A 
HETATM   31  C   UNK N   1      50.108  56.290  54.834  0.00  0.00     0.012 A 
HETATM   32  C   UNK N   1      49.780  55.673  53.625  0.00  0.00     0.037 A 
HETATM   33  C   UNK N   1      50.367  54.456  53.275  0.00  0.00     0.065 A 
HETATM   34  C   UNK N   1      51.281  53.851  54.147  0.00  0.00     0.037 A 
HETATM   35  C   UNK N   1      51.602  54.456  55.367  0.00  0.00     0.012 A 
BRANCH  33  36
HETATM   36  O   UNK N   1      50.049  53.878  52.099  0.00  0.00    -0.361 OA
HETATM   37  H   UNK N   1      49.259  53.326  51.998  0.00  0.00     0.217 HD
ENDBRANCH  33  36
ENDBRANCH   6  30
TORSDOF 10
ENDMDL
MODEL 7
REMARK VINA RESULT:      -5.2     15.457     18.116
REMARK  10 active torsions:
REMARK  status: ('A' for Active; 'I' for Inactive)
REMARK    1  A    between atoms: C_6  and  C_7 
REMARK    2  A    between atoms: C_10  and  O_11 
REMARK    3  A    between atoms: C_17  and  O_18 
REMARK    4  A    between atoms: C_21  and  O_22 
REMARK    5  A    between atoms: O_22  and  C_23 
REMARK    6  A    between atoms: C_23  and  C_24 
REMARK    7  A    between atoms: C_26  and  O_27 
REMARK    8  A    between atoms: C_29  and  O_30 
REMARK    9  A    between atoms: C_32  and  O_33 
REMARK   10  A    between atoms: C_35  and  O_36 
ROOT
HETATM    1  O   UNK N   1      38.703  45.018  46.865  0.00  0.00    -0.292 OA
HETATM    2  C   UNK N   1      39.566  44.873  47.717  0.00  0.00     0.167 C 
HETATM    3  C   UNK N   1      40.570  45.936  48.000  0.00  0.00     0.077 A 
HETATM    4  C   UNK N   1      41.663  45.576  48.817  0.00  0.00     0.089 A 
HETATM    5  O   UNK N   1      41.786  44.302  49.275  0.00  0.00    -0.340 OA
HETATM    6  C   UNK N   1      41.149  43.221  48.674  0.00  0.00     0.169 C 
HETATM    7  C   UNK N   1      39.659  43.586  48.505  0.00  0.00     0.121 C 
HETATM    8  C   UNK N   1      42.638  46.514  49.151  0.00  0.00     0.074 A 
HETATM    9  C   UNK N   1      42.559  47.814  48.659  0.00  0.00     0.071 A 
HETATM   10  C   UNK N   1      41.491  48.185  47.832  0.00  0.00     0.074 A 
HETATM   11  C   UNK N   1      40.481  47.255  47.490  0.00  0.00     0.088 A 
ENDROOT
BRANCH  11  12
HETATM   12  O   UNK N   1      39.434  47.613  46.691  0.00  0.00    -0.347 OA
BRANCH  12  13
HETATM   13  C   UNK N   1      39.437  47.513  45.308  0.00  0.00     0.210 C 
BRANCH  13  14
HETATM   14  C   UNK N   1      39.262  48.881  44.640  0.00  0.00     0.180 C 
HETATM   15  O   UNK N   1      40.537  49.504  44.538  0.00  0.00    -0.349 OA
HETATM   16  C   UNK N   1      40.437  50.827  44.029  0.00  0.00     0.288 C 
HETATM   17  C   UNK N   1      39.853  50.820  42.600  0.00  0.00     0.204 C 
HETATM   18  C   UNK N   1      38.471  50.141  42.598  0.00  0.00     0.183 C 
HETATM   19  C   UNK N   1      38.592  48.749  43.246  0.00  0.00     0.180 C 
BRANCH  16  20
HETATM   20  O   UNK N   1      39.675  51.644  44.886  0.00  0.00    -0.369 OA
HETATM   21  H   UNK N   1      39.111  52.220  44.308  0.00  0.00     0.212 HD
ENDBRANCH  16  20
BRANCH  17  22
HETATM   22  O   UNK N   1      39.793  52.118  42.061  0.00  0.00    -0.388 OA
HETATM   23  H   UNK N   1      39.204  52.090  41.263  0.00  0.00     0.210 HD
ENDBRANCH  17  22
BRANCH  18  24
HETATM   24  O   UNK N   1      37.945  50.055  41.297  0.00  0.00    -0.390 OA
HETATM   25  H   UNK N   1      36.984  49.820  41.376  0.00  0.00     0.210 HD
ENDBRANCH  18  24
BRANCH  19  26
HETATM   26  O   UNK N   1      37.331  48.132  43.333  0.00  0.00    -0.390 OA
HETATM   27  H   UNK N   1      36.761  48.510  42.613  0.00  0.00     0.210 HD
ENDBRANCH  19  26
ENDBRANCH  13  14
ENDBRANCH  12  13
ENDBRANCH  11  12
BRANCH   9  28
HETATM   28  O   UNK N   1      43.520  48.704  48.979  0.00  0.00    -0.361 OA
HETATM   29  H   UNK N   1      44.370  48.424  49.348  0.00  0.00     0.217 HD
ENDBRANCH   9  28
BRANCH   6  30
HETATM   30  C   UNK N   1      41.889  42.831  47.393  0.00  0.00    -0.028 A 
HETATM   31  C   UNK N   1      42.529  41.577  47.328  0.00  0.00     0.012 A 
HETATM   32  C   UNK N   1      43.209  41.181  46.174  0.00  0.00     0.037 A 
HETATM   33  C   UNK N   1      43.244  42.018  45.057  0.00  0.00     0.065 A 
HETATM   34  C   UNK N   1      42.601  43.262  45.101  0.00  0.00     0.037 A 
HETATM   35  C   UNK N   1      41.932  43.671  46.259  0.00  0.00     0.012 A 
BRANCH  33  36
HETATM   36  O   UNK N   1      43.895  41.617  43.946  0.00  0.00    -0.361 OA
HETATM   37  H   UNK N   1      44.745  42.001  43.685  0.00  0.00     0.217 HD
ENDBRANCH  33  36
ENDBRANCH   6  30
TORSDOF 10
ENDMDL
MODEL 8
REMARK VINA RESULT:      -5.2     13.236     17.646
REMARK  10 active torsions:
REMARK  status: ('A' for Active; 'I' for Inactive)
REMARK    1  A    between atoms: C_6  and  C_7 
REMARK    2  A    between atoms: C_10  and  O_11 
REMARK    3  A    between atoms: C_17  and  O_18 
REMARK    4  A    between atoms: C_21  and  O_22 
REMARK    5  A    between atoms: O_22  and  C_23 
REMARK    6  A    between atoms: C_23  and  C_24 
REMARK    7  A    between atoms: C_26  and  O_27 
REMARK    8  A    between atoms: C_29  and  O_30 
REMARK    9  A    between atoms: C_32  and  O_33 
REMARK   10  A    between atoms: C_35  and  O_36 
ROOT
HETATM    1  O   UNK N   1      50.881  48.378  61.028  0.00  0.00    -0.292 OA
HETATM    2  C   UNK N   1      51.423  48.747  59.998  0.00  0.00     0.167 C 
HETATM    3  C   UNK N   1      51.145  50.084  59.404  0.00  0.00     0.077 A 
HETATM    4  C   UNK N   1      51.626  50.311  58.097  0.00  0.00     0.089 A 
HETATM    5  O   UNK N   1      52.273  49.322  57.424  0.00  0.00    -0.340 OA
HETATM    6  C   UNK N   1      52.144  47.977  57.753  0.00  0.00     0.169 C 
HETATM    7  C   UNK N   1      52.387  47.837  59.270  0.00  0.00     0.121 C 
HETATM    8  C   UNK N   1      51.430  51.541  57.472  0.00  0.00     0.074 A 
HETATM    9  C   UNK N   1      50.732  52.555  58.124  0.00  0.00     0.071 A 
HETATM   10  C   UNK N   1      50.231  52.342  59.414  0.00  0.00     0.074 A 
HETATM   11  C   UNK N   1      50.429  51.107  60.075  0.00  0.00     0.088 A 
ENDROOT
BRANCH  11  12
HETATM   12  O   UNK N   1      49.951  50.896  61.336  0.00  0.00    -0.347 OA
BRANCH  12  13
HETATM   13  C   UNK N   1      49.078  51.751  61.993  0.00  0.00     0.210 C 
BRANCH  13  14
HETATM   14  C   UNK N   1      47.649  51.199  62.008  0.00  0.00     0.180 C 
HETATM   15  O   UNK N   1      46.868  51.929  61.069  0.00  0.00    -0.349 OA
HETATM   16  C   UNK N   1      45.500  51.545  61.110  0.00  0.00     0.288 C 
HETATM   17  C   UNK N   1      45.338  50.058  60.731  0.00  0.00     0.204 C 
HETATM   18  C   UNK N   1      46.169  49.177  61.683  0.00  0.00     0.183 C 
HETATM   19  C   UNK N   1      47.625  49.680  61.693  0.00  0.00     0.180 C 
BRANCH  16  20
HETATM   20  O   UNK N   1      44.936  51.813  62.373  0.00  0.00    -0.369 OA
HETATM   21  H   UNK N   1      45.149  51.037  62.953  0.00  0.00     0.212 HD
ENDBRANCH  16  20
BRANCH  17  22
HETATM   22  O   UNK N   1      43.985  49.673  60.718  0.00  0.00    -0.388 OA
HETATM   23  H   UNK N   1      43.521  50.216  60.029  0.00  0.00     0.210 HD
ENDBRANCH  17  22
BRANCH  18  24
HETATM   24  O   UNK N   1      46.099  47.822  61.317  0.00  0.00    -0.390 OA
HETATM   25  H   UNK N   1      45.357  47.724  60.665  0.00  0.00     0.210 HD
ENDBRANCH  18  24
BRANCH  19  26
HETATM   26  O   UNK N   1      48.395  48.947  62.614  0.00  0.00    -0.390 OA
HETATM   27  H   UNK N   1      49.265  49.415  62.719  0.00  0.00     0.210 HD
ENDBRANCH  19  26
ENDBRANCH  13  14
ENDBRANCH  12  13
ENDBRANCH  11  12
BRANCH   9  28
HETATM   28  O   UNK N   1      50.538  53.734  57.498  0.00  0.00    -0.361 OA
HETATM   29  H   UNK N   1      49.977  54.425  57.878  0.00  0.00     0.217 HD
ENDBRANCH   9  28
BRANCH   6  30
HETATM   30  C   UNK N   1      50.803  47.447  57.241  0.00  0.00    -0.028 A 
HETATM   31  C   UNK N   1      50.650  47.189  55.864  0.00  0.00     0.012 A 
HETATM   32  C   UNK N   1      49.444  46.697  55.359  0.00  0.00     0.037 A 
HETATM   33  C   UNK N   1      48.378  46.431  56.219  0.00  0.00     0.065 A 
HETATM   34  C   UNK N   1      48.519  46.669  57.593  0.00  0.00     0.037 A 
HETATM   35  C   UNK N   1      49.718  47.177  58.104  0.00  0.00     0.012 A 
BRANCH  33  36
HETATM   36  O   UNK N   1      47.224  45.945  55.718  0.00  0.00    -0.361 OA
HETATM   37  H   UNK N   1      47.108  45.781  54.771  0.00  0.00     0.217 HD
ENDBRANCH  33  36
ENDBRANCH   6  30
TORSDOF 10
ENDMDL
MODEL 9
REMARK VINA RESULT:      -5.2      2.585      7.681
REMARK  10 active torsions:
REMARK  status: ('A' for Active; 'I' for Inactive)
REMARK    1  A    between atoms: C_6  and  C_7 
REMARK    2  A    between atoms: C_10  and  O_11 
REMARK    3  A    between atoms: C_17  and  O_18 
REMARK    4  A    between atoms: C_21  and  O_22 
REMARK    5  A    between atoms: O_22  and  C_23 
REMARK    6  A    between atoms: C_23  and  C_24 
REMARK    7  A    between atoms: C_26  and  O_27 
REMARK    8  A    between atoms: C_29  and  O_30 
REMARK    9  A    between atoms: C_32  and  O_33 
REMARK   10  A    between atoms: C_35  and  O_36 
ROOT
HETATM    1  O   UNK N   1      32.755  43.339  61.121  0.00  0.00    -0.292 OA
HETATM    2  C   UNK N   1      32.537  44.054  62.087  0.00  0.00     0.167 C 
HETATM    3  C   UNK N   1      31.651  45.246  61.992  0.00  0.00     0.077 A 
HETATM    4  C   UNK N   1      31.664  46.135  63.088  0.00  0.00     0.089 A 
HETATM    5  O   UNK N   1      32.488  45.908  64.145  0.00  0.00    -0.340 OA
HETATM    6  C   UNK N   1      33.615  45.098  64.061  0.00  0.00     0.169 C 
HETATM    7  C   UNK N   1      33.189  43.761  63.420  0.00  0.00     0.121 C 
HETATM    8  C   UNK N   1      30.849  47.266  63.094  0.00  0.00     0.074 A 
HETATM    9  C   UNK N   1      30.029  47.545  62.003  0.00  0.00     0.071 A 
HETATM   10  C   UNK N   1      30.016  46.684  60.899  0.00  0.00     0.074 A 
HETATM   11  C   UNK N   1      30.824  45.522  60.875  0.00  0.00     0.088 A 
ENDROOT
BRANCH  11  12
HETATM   12  O   UNK N   1      30.809  44.674  59.806  0.00  0.00    -0.347 OA
BRANCH  12  13
HETATM   13  C   UNK N   1      29.775  44.599  58.883  0.00  0.00     0.210 C 
BRANCH  13  14
HETATM   14  C   UNK N   1      29.971  43.433  57.908  0.00  0.00     0.180 C 
HETATM   15  O   UNK N   1      28.831  43.353  57.059  0.00  0.00    -0.349 OA
HETATM   16  C   UNK N   1      28.893  42.222  56.201  0.00  0.00     0.288 C 
HETATM   17  C   UNK N   1      30.115  42.314  55.262  0.00  0.00     0.204 C 
HETATM   18  C   UNK N   1      31.408  42.427  56.090  0.00  0.00     0.183 C 
HETATM   19  C   UNK N   1      31.273  43.600  57.081  0.00  0.00     0.180 C 
BRANCH  16  20
HETATM   20  O   UNK N   1      28.908  41.024  56.941  0.00  0.00    -0.369 OA
HETATM   21  H   UNK N   1      28.362  41.182  57.754  0.00  0.00     0.212 HD
ENDBRANCH  16  20
BRANCH  17  22
HETATM   22  O   UNK N   1      30.164  41.227  54.372  0.00  0.00    -0.388 OA
HETATM   23  H   UNK N   1      30.608  40.472  54.837  0.00  0.00     0.210 HD
ENDBRANCH  17  22
BRANCH  18  24
HETATM   24  O   UNK N   1      32.533  42.586  55.262  0.00  0.00    -0.390 OA
HETATM   25  H   UNK N   1      33.133  43.249  55.694  0.00  0.00     0.210 HD
ENDBRANCH  18  24
BRANCH  19  26
HETATM   26  O   UNK N   1      32.407  43.682  57.909  0.00  0.00    -0.390 OA
HETATM   27  H   UNK N   1      32.368  42.922  58.547  0.00  0.00     0.210 HD
ENDBRANCH  19  26
ENDBRANCH  13  14
ENDBRANCH  12  13
ENDBRANCH  11  12
BRANCH   9  28
HETATM   28  O   UNK N   1      29.259  48.652  62.019  0.00  0.00    -0.361 OA
HETATM   29  H   UNK N   1      29.145  49.204  61.232  0.00  0.00     0.217 HD
ENDBRANCH   9  28
BRANCH   6  30
HETATM   30  C   UNK N   1      34.740  45.850  63.348  0.00  0.00    -0.028 A 
HETATM   31  C   UNK N   1      34.759  47.259  63.396  0.00  0.00     0.012 A 
HETATM   32  C   UNK N   1      35.773  47.982  62.764  0.00  0.00     0.037 A 
HETATM   33  C   UNK N   1      36.799  47.315  62.093  0.00  0.00     0.065 A 
HETATM   34  C   UNK N   1      36.803  45.914  62.049  0.00  0.00     0.037 A 
HETATM   35  C   UNK N   1      35.781  45.184  62.666  0.00  0.00     0.012 A 
BRANCH  33  36
HETATM   36  O   UNK N   1      37.778  48.026  61.498  0.00  0.00    -0.361 OA
HETATM   37  H   UNK N   1      38.666  48.090  61.879  0.00  0.00     0.217 HD
ENDBRANCH  33  36
ENDBRANCH   6  30
TORSDOF 10
ENDMDL
