MODEL 1
REMARK VINA RESULT:      -6.9      0.000      0.000
REMARK  11 active torsions:
REMARK  status: ('A' for Active; 'I' for Inactive)
REMARK    1  A    between atoms: C_2  and  O_3 
REMARK    2  A    between atoms: C_2  and  C_20 
REMARK    3  A    between atoms: O_3  and  C_4 
REMARK    4  A    between atoms: C_5  and  O_6 
REMARK    5  A    between atoms: C_8  and  O_9 
REMARK    6  A    between atoms: C_12  and  O_13 
REMARK    7  A    between atoms: C_12  and  C_15 
REMARK    8  A    between atoms: C_15  and  O_17 
REMARK    9  A    between atoms: C_21  and  C_22 
REMARK   10  A    between atoms: C_24  and  O_25 
REMARK   11  A    between atoms: C_27  and  O_28 
ROOT
HETATM    1  C   UNK N   1      41.622  45.929  46.765  0.00  0.00     0.166 C 
HETATM    2  C   UNK N   1      40.094  45.955  46.517  0.00  0.00     0.176 C 
HETATM    3  C   UNK N   1      39.565  44.516  46.322  0.00  0.00     0.152 C 
HETATM    4  C   UNK N   1      40.285  43.836  45.133  0.00  0.00     0.083 C 
HETATM    5  C   UNK N   1      41.828  43.790  45.303  0.00  0.00     0.147 C 
HETATM    6  C   UNK N   1      42.334  45.235  45.583  0.00  0.00     0.084 C 
ENDROOT
BRANCH   1   7
HETATM    7  O   UNK N   1      42.141  47.209  46.873  0.00  0.00    -0.310 OA
BRANCH   7   8
HETATM    8  C   UNK N   1      42.760  47.721  47.970  0.00  0.00     0.283 C 
HETATM    9  O   UNK N   1      43.564  48.635  47.864  0.00  0.00    -0.260 OA
BRANCH   8  10
HETATM   10  C   UNK N   1      42.414  47.213  49.315  0.00  0.00     0.083 C 
HETATM   11  C   UNK N   1      42.086  45.922  49.517  0.00  0.00     0.017 C 
BRANCH  11  12
HETATM   12  C   UNK N   1      41.708  45.351  50.844  0.00  0.00    -0.033 A 
HETATM   13  C   UNK N   1      40.680  44.395  50.894  0.00  0.00     0.050 A 
HETATM   14  C   UNK N   1      40.288  43.824  52.113  0.00  0.00     0.099 A 
HETATM   15  C   UNK N   1      40.919  44.223  53.304  0.00  0.00     0.098 A 
HETATM   16  C   UNK N   1      41.937  45.183  53.263  0.00  0.00     0.040 A 
HETATM   17  C   UNK N   1      42.334  45.741  52.045  0.00  0.00     0.014 A 
BRANCH  14  18
HETATM   18  O   UNK N   1      39.308  42.896  52.120  0.00  0.00    -0.358 OA
HETATM   19  H   UNK N   1      39.451  41.995  52.443  0.00  0.00     0.218 HD
ENDBRANCH  14  18
BRANCH  15  20
HETATM   20  O   UNK N   1      40.543  43.683  54.484  0.00  0.00    -0.358 OA
HETATM   21  H   UNK N   1      40.661  42.742  54.674  0.00  0.00     0.218 HD
ENDBRANCH  15  20
ENDBRANCH  11  12
ENDBRANCH   8  10
ENDBRANCH   7   8
ENDBRANCH   1   7
BRANCH   2  22
HETATM   22  O   UNK N   1      39.821  46.736  45.380  0.00  0.00    -0.390 OA
HETATM   23  H   UNK N   1      40.188  46.246  44.597  0.00  0.00     0.210 HD
ENDBRANCH   2  22
BRANCH   3  24
HETATM   24  O   UNK N   1      39.746  43.784  47.507  0.00  0.00    -0.393 OA
HETATM   25  H   UNK N   1      40.354  44.314  48.086  0.00  0.00     0.210 HD
ENDBRANCH   3  24
BRANCH   5  26
HETATM   26  O   UNK N   1      42.382  43.349  44.085  0.00  0.00    -0.379 OA
HETATM   27  H   UNK N   1      41.773  42.664  43.702  0.00  0.00     0.211 HD
ENDBRANCH   5  26
BRANCH   5  28
HETATM   28  C   UNK N   1      42.218  42.781  46.382  0.00  0.00     0.176 C 
HETATM   29  O   UNK N   1      42.361  43.130  47.544  0.00  0.00    -0.648 OA
BRANCH  28  30
HETATM   30  O   UNK N   1      42.467  41.496  46.048  0.00  0.00    -0.774 OA
HETATM   31  H   UNK N   1      41.816  40.961  45.573  0.00  0.00     0.167 HD
ENDBRANCH  28  30
ENDBRANCH   5  28
TORSDOF 11
ENDMDL
MODEL 2
REMARK VINA RESULT:      -6.8      3.167      6.950
REMARK  11 active torsions:
REMARK  status: ('A' for Active; 'I' for Inactive)
REMARK    1  A    between atoms: C_2  and  O_3 
REMARK    2  A    between atoms: C_2  and  C_20 
REMARK    3  A    between atoms: O_3  and  C_4 
REMARK    4  A    between atoms: C_5  and  O_6 
REMARK    5  A    between atoms: C_8  and  O_9 
REMARK    6  A    between atoms: C_12  and  O_13 
REMARK    7  A    between atoms: C_12  and  C_15 
REMARK    8  A    between atoms: C_15  and  O_17 
REMARK    9  A    between atoms: C_21  and  C_22 
REMARK   10  A    between atoms: C_24  and  O_25 
REMARK   11  A    between atoms: C_27  and  O_28 
ROOT
HETATM    1  C   UNK N   1      41.530  45.610  48.539  0.00  0.00     0.166 C 
HETATM    2  C   UNK N   1      40.340  45.029  47.735  0.00  0.00     0.176 C 
HETATM    3  C   UNK N   1      39.380  44.274  48.682  0.00  0.00     0.152 C 
HETATM    4  C   UNK N   1      40.132  43.137  49.414  0.00  0.00     0.083 C 
HETATM    5  C   UNK N   1      41.353  43.643  50.230  0.00  0.00     0.147 C 
HETATM    6  C   UNK N   1      42.266  44.473  49.281  0.00  0.00     0.084 C 
ENDROOT
BRANCH   1   7
HETATM    7  O   UNK N   1      42.448  46.233  47.710  0.00  0.00    -0.310 OA
BRANCH   7   8
HETATM    8  C   UNK N   1      42.476  47.560  47.416  0.00  0.00     0.283 C 
HETATM    9  O   UNK N   1      43.048  48.351  48.150  0.00  0.00    -0.260 OA
BRANCH   8  10
HETATM   10  C   UNK N   1      41.861  48.049  46.163  0.00  0.00     0.083 C 
HETATM   11  C   UNK N   1      40.655  48.650  46.158  0.00  0.00     0.017 C 
BRANCH  11  12
HETATM   12  C   UNK N   1      39.971  49.147  44.927  0.00  0.00    -0.033 A 
HETATM   13  C   UNK N   1      38.860  48.436  44.444  0.00  0.00     0.050 A 
HETATM   14  C   UNK N   1      38.179  48.861  43.295  0.00  0.00     0.099 A 
HETATM   15  C   UNK N   1      38.621  50.005  42.606  0.00  0.00     0.098 A 
HETATM   16  C   UNK N   1      39.734  50.712  43.076  0.00  0.00     0.040 A 
HETATM   17  C   UNK N   1      40.403  50.293  44.229  0.00  0.00     0.014 A 
BRANCH  14  18
HETATM   18  O   UNK N   1      37.106  48.163  42.869  0.00  0.00    -0.358 OA
HETATM   19  H   UNK N   1      36.888  47.286  43.217  0.00  0.00     0.218 HD
ENDBRANCH  14  18
BRANCH  15  20
HETATM   20  O   UNK N   1      37.975  50.417  41.494  0.00  0.00    -0.358 OA
HETATM   21  H   UNK N   1      38.352  51.084  40.903  0.00  0.00     0.218 HD
ENDBRANCH  15  20
ENDBRANCH  11  12
ENDBRANCH   8  10
ENDBRANCH   7   8
ENDBRANCH   1   7
BRANCH   2  22
HETATM   22  O   UNK N   1      40.831  44.163  46.741  0.00  0.00    -0.390 OA
HETATM   23  H   UNK N   1      41.464  43.540  47.186  0.00  0.00     0.210 HD
ENDBRANCH   2  22
BRANCH   3  24
HETATM   24  O   UNK N   1      38.816  45.178  49.597  0.00  0.00    -0.393 OA
HETATM   25  H   UNK N   1      38.166  45.734  49.094  0.00  0.00     0.210 HD
ENDBRANCH   3  24
BRANCH   5  26
HETATM   26  O   UNK N   1      42.072  42.516  50.672  0.00  0.00    -0.379 OA
HETATM   27  H   UNK N   1      42.657  42.801  51.423  0.00  0.00     0.211 HD
ENDBRANCH   5  26
BRANCH   5  28
HETATM   28  C   UNK N   1      40.890  44.412  51.466  0.00  0.00     0.176 C 
HETATM   29  O   UNK N   1      41.505  45.389  51.864  0.00  0.00    -0.648 OA
BRANCH  28  30
HETATM   30  O   UNK N   1      39.820  43.980  52.170  0.00  0.00    -0.774 OA
HETATM   31  H   UNK N   1      39.922  43.446  52.970  0.00  0.00     0.167 HD
ENDBRANCH  28  30
ENDBRANCH   5  28
TORSDOF 11
ENDMDL
MODEL 3
REMARK VINA RESULT:      -6.5      3.311      7.496
REMARK  11 active torsions:
REMARK  status: ('A' for Active; 'I' for Inactive)
REMARK    1  A    between atoms: C_2  and  O_3 
REMARK    2  A    between atoms: C_2  and  C_20 
REMARK    3  A    between atoms: O_3  and  C_4 
REMARK    4  A    between atoms: C_5  and  O_6 
REMARK    5  A    between atoms: C_8  and  O_9 
REMARK    6  A    between atoms: C_12  and  O_13 
REMARK    7  A    between atoms: C_12  and  C_15 
REMARK    8  A    between atoms: C_15  and  O_17 
REMARK    9  A    between atoms: C_21  and  C_22 
REMARK   10  A    between atoms: C_24  and  O_25 
REMARK   11  A    between atoms: C_27  and  O_28 
ROOT
HETATM    1  C   UNK N   1      40.070  45.048  48.960  0.00  0.00     0.166 C 
HETATM    2  C   UNK N   1      41.130  44.369  48.058  0.00  0.00     0.176 C 
HETATM    3  C   UNK N   1      41.967  43.369  48.888  0.00  0.00     0.152 C 
HETATM    4  C   UNK N   1      42.658  44.096  50.066  0.00  0.00     0.083 C 
HETATM    5  C   UNK N   1      41.656  44.819  51.007  0.00  0.00     0.147 C 
HETATM    6  C   UNK N   1      40.764  45.758  50.143  0.00  0.00     0.084 C 
ENDROOT
BRANCH   1   7
HETATM    7  O   UNK N   1      39.347  46.003  48.264  0.00  0.00    -0.310 OA
BRANCH   7   8
HETATM    8  C   UNK N   1      38.573  45.769  47.171  0.00  0.00     0.283 C 
HETATM    9  O   UNK N   1      37.819  44.809  47.134  0.00  0.00    -0.260 OA
BRANCH   8  10
HETATM   10  C   UNK N   1      38.593  46.718  46.037  0.00  0.00     0.083 C 
HETATM   11  C   UNK N   1      39.355  47.830  46.063  0.00  0.00     0.017 C 
BRANCH  11  12
HETATM   12  C   UNK N   1      39.405  48.837  44.962  0.00  0.00    -0.033 A 
HETATM   13  C   UNK N   1      38.544  48.675  43.864  0.00  0.00     0.050 A 
HETATM   14  C   UNK N   1      38.547  49.593  42.806  0.00  0.00     0.099 A 
HETATM   15  C   UNK N   1      39.434  50.684  42.832  0.00  0.00     0.098 A 
HETATM   16  C   UNK N   1      40.303  50.846  43.918  0.00  0.00     0.040 A 
HETATM   17  C   UNK N   1      40.289  49.936  44.978  0.00  0.00     0.014 A 
BRANCH  14  18
HETATM   18  O   UNK N   1      37.693  49.414  41.776  0.00  0.00    -0.358 OA
HETATM   19  H   UNK N   1      37.796  49.878  40.932  0.00  0.00     0.218 HD
ENDBRANCH  14  18
BRANCH  15  20
HETATM   20  O   UNK N   1      39.449  51.570  41.813  0.00  0.00    -0.358 OA
HETATM   21  H   UNK N   1      39.658  51.301  40.907  0.00  0.00     0.218 HD
ENDBRANCH  15  20
ENDBRANCH  11  12
ENDBRANCH   8  10
ENDBRANCH   7   8
ENDBRANCH   1   7
BRANCH   2  22
HETATM   22  O   UNK N   1      41.960  45.354  47.495  0.00  0.00    -0.390 OA
HETATM   23  H   UNK N   1      41.380  46.128  47.270  0.00  0.00     0.210 HD
ENDBRANCH   2  22
BRANCH   3  24
HETATM   24  O   UNK N   1      41.139  42.333  49.350  0.00  0.00    -0.393 OA
HETATM   25  H   UNK N   1      40.344  42.759  49.763  0.00  0.00     0.210 HD
ENDBRANCH   3  24
BRANCH   5  26
HETATM   26  O   UNK N   1      42.400  45.608  51.904  0.00  0.00    -0.379 OA
HETATM   27  H   UNK N   1      41.763  46.170  52.420  0.00  0.00     0.211 HD
ENDBRANCH   5  26
BRANCH   5  28
HETATM   28  C   UNK N   1      40.865  43.803  51.828  0.00  0.00     0.176 C 
HETATM   29  O   UNK N   1      41.435  42.995  52.545  0.00  0.00    -0.648 OA
BRANCH  28  30
HETATM   30  O   UNK N   1      39.519  43.749  51.724  0.00  0.00    -0.774 OA
HETATM   31  H   UNK N   1      38.945  43.900  52.488  0.00  0.00     0.167 HD
ENDBRANCH  28  30
ENDBRANCH   5  28
TORSDOF 11
ENDMDL
MODEL 4
REMARK VINA RESULT:      -6.4      3.256      6.713
REMARK  11 active torsions:
REMARK  status: ('A' for Active; 'I' for Inactive)
REMARK    1  A    between atoms: C_2  and  O_3 
REMARK    2  A    between atoms: C_2  and  C_20 
REMARK    3  A    between atoms: O_3  and  C_4 
REMARK    4  A    between atoms: C_5  and  O_6 
REMARK    5  A    between atoms: C_8  and  O_9 
REMARK    6  A    between atoms: C_12  and  O_13 
REMARK    7  A    between atoms: C_12  and  C_15 
REMARK    8  A    between atoms: C_15  and  O_17 
REMARK    9  A    between atoms: C_21  and  C_22 
REMARK   10  A    between atoms: C_24  and  O_25 
REMARK   11  A    between atoms: C_27  and  O_28 
ROOT
HETATM    1  C   UNK N   1      41.944  46.006  47.718  0.00  0.00     0.166 C 
HETATM    2  C   UNK N   1      41.378  45.377  49.015  0.00  0.00     0.176 C 
HETATM    3  C   UNK N   1      41.187  43.855  48.826  0.00  0.00     0.152 C 
HETATM    4  C   UNK N   1      40.232  43.578  47.639  0.00  0.00     0.083 C 
HETATM    5  C   UNK N   1      40.727  44.196  46.303  0.00  0.00     0.147 C 
HETATM    6  C   UNK N   1      40.996  45.712  46.535  0.00  0.00     0.084 C 
ENDROOT
BRANCH   1   7
HETATM    7  O   UNK N   1      42.061  47.381  47.830  0.00  0.00    -0.310 OA
BRANCH   7   8
HETATM    8  C   UNK N   1      42.672  48.199  46.932  0.00  0.00     0.283 C 
HETATM    9  O   UNK N   1      43.820  48.577  47.111  0.00  0.00    -0.260 OA
BRANCH   8  10
HETATM   10  C   UNK N   1      41.967  48.587  45.691  0.00  0.00     0.083 C 
HETATM   11  C   UNK N   1      40.696  49.033  45.713  0.00  0.00     0.017 C 
BRANCH  11  12
HETATM   12  C   UNK N   1      39.922  49.420  44.497  0.00  0.00    -0.033 A 
HETATM   13  C   UNK N   1      38.812  48.641  44.131  0.00  0.00     0.050 A 
HETATM   14  C   UNK N   1      38.049  48.963  43.000  0.00  0.00     0.099 A 
HETATM   15  C   UNK N   1      38.405  50.071  42.211  0.00  0.00     0.098 A 
HETATM   16  C   UNK N   1      39.516  50.846  42.564  0.00  0.00     0.040 A 
HETATM   17  C   UNK N   1      40.268  50.530  43.698  0.00  0.00     0.014 A 
BRANCH  14  18
HETATM   18  O   UNK N   1      36.979  48.201  42.689  0.00  0.00    -0.358 OA
HETATM   19  H   UNK N   1      36.227  48.094  43.290  0.00  0.00     0.218 HD
ENDBRANCH  14  18
BRANCH  15  20
HETATM   20  O   UNK N   1      37.679  50.384  41.116  0.00  0.00    -0.358 OA
HETATM   21  H   UNK N   1      36.810  49.990  40.951  0.00  0.00     0.218 HD
ENDBRANCH  15  20
ENDBRANCH  11  12
ENDBRANCH   8  10
ENDBRANCH   7   8
ENDBRANCH   1   7
BRANCH   2  22
HETATM   22  O   UNK N   1      40.152  45.989  49.331  0.00  0.00    -0.390 OA
HETATM   23  H   UNK N   1      39.436  45.334  49.114  0.00  0.00     0.210 HD
ENDBRANCH   2  22
BRANCH   3  24
HETATM   24  O   UNK N   1      42.436  43.246  48.621  0.00  0.00    -0.393 OA
HETATM   25  H   UNK N   1      42.675  42.782  49.465  0.00  0.00     0.210 HD
ENDBRANCH   3  24
BRANCH   5  26
HETATM   26  O   UNK N   1      39.692  44.063  45.358  0.00  0.00    -0.379 OA
HETATM   27  H   UNK N   1      39.035  44.791  45.520  0.00  0.00     0.211 HD
ENDBRANCH   5  26
BRANCH   5  28
HETATM   28  C   UNK N   1      41.939  43.430  45.775  0.00  0.00     0.176 C 
HETATM   29  O   UNK N   1      42.691  43.933  44.955  0.00  0.00    -0.648 OA
BRANCH  28  30
HETATM   30  O   UNK N   1      42.158  42.156  46.169  0.00  0.00    -0.774 OA
HETATM   31  H   UNK N   1      41.589  41.431  45.878  0.00  0.00     0.167 HD
ENDBRANCH  28  30
ENDBRANCH   5  28
TORSDOF 11
ENDMDL
MODEL 5
REMARK VINA RESULT:      -6.4     14.294     16.718
REMARK  11 active torsions:
REMARK  status: ('A' for Active; 'I' for Inactive)
REMARK    1  A    between atoms: C_2  and  O_3 
REMARK    2  A    between atoms: C_2  and  C_20 
REMARK    3  A    between atoms: O_3  and  C_4 
REMARK    4  A    between atoms: C_5  and  O_6 
REMARK    5  A    between atoms: C_8  and  O_9 
REMARK    6  A    between atoms: C_12  and  O_13 
REMARK    7  A    between atoms: C_12  and  C_15 
REMARK    8  A    between atoms: C_15  and  O_17 
REMARK    9  A    between atoms: C_21  and  C_22 
REMARK   10  A    between atoms: C_24  and  O_25 
REMARK   11  A    between atoms: C_27  and  O_28 
ROOT
HETATM    1  C   UNK N   1      28.024  54.809  40.045  0.00  0.00     0.166 C 
HETATM    2  C   UNK N   1      26.493  54.991  40.193  0.00  0.00     0.176 C 
HETATM    3  C   UNK N   1      25.807  53.612  40.323  0.00  0.00     0.152 C 
HETATM    4  C   UNK N   1      26.121  52.737  39.086  0.00  0.00     0.083 C 
HETATM    5  C   UNK N   1      27.643  52.526  38.862  0.00  0.00     0.147 C 
HETATM    6  C   UNK N   1      28.331  53.922  38.819  0.00  0.00     0.084 C 
ENDROOT
BRANCH   1   7
HETATM    7  O   UNK N   1      28.664  56.023  39.855  0.00  0.00    -0.310 OA
BRANCH   7   8
HETATM    8  C   UNK N   1      29.575  56.578  40.698  0.00  0.00     0.283 C 
HETATM    9  O   UNK N   1      29.555  57.775  40.938  0.00  0.00    -0.260 OA
BRANCH   8  10
HETATM   10  C   UNK N   1      30.564  55.717  41.382  0.00  0.00     0.083 C 
HETATM   11  C   UNK N   1      30.552  55.556  42.719  0.00  0.00     0.017 C 
BRANCH  11  12
HETATM   12  C   UNK N   1      31.534  54.720  43.472  0.00  0.00    -0.033 A 
HETATM   13  C   UNK N   1      31.455  53.322  43.352  0.00  0.00     0.050 A 
HETATM   14  C   UNK N   1      32.354  52.491  44.034  0.00  0.00     0.099 A 
HETATM   15  C   UNK N   1      33.339  53.058  44.861  0.00  0.00     0.098 A 
HETATM   16  C   UNK N   1      33.416  54.450  44.994  0.00  0.00     0.040 A 
HETATM   17  C   UNK N   1      32.527  55.277  44.304  0.00  0.00     0.014 A 
BRANCH  14  18
HETATM   18  O   UNK N   1      32.259  51.153  43.881  0.00  0.00    -0.358 OA
HETATM   19  H   UNK N   1      32.401  50.718  43.027  0.00  0.00     0.218 HD
ENDBRANCH  14  18
BRANCH  15  20
HETATM   20  O   UNK N   1      34.205  52.264  45.527  0.00  0.00    -0.358 OA
HETATM   21  H   UNK N   1      34.052  52.002  46.446  0.00  0.00     0.218 HD
ENDBRANCH  15  20
ENDBRANCH  11  12
ENDBRANCH   8  10
ENDBRANCH   7   8
ENDBRANCH   1   7
BRANCH   2  22
HETATM   22  O   UNK N   1      25.997  55.681  39.073  0.00  0.00    -0.390 OA
HETATM   23  H   UNK N   1      26.241  55.147  38.271  0.00  0.00     0.210 HD
ENDBRANCH   2  22
BRANCH   3  24
HETATM   24  O   UNK N   1      26.232  52.985  41.506  0.00  0.00    -0.393 OA
HETATM   25  H   UNK N   1      25.737  53.409  42.254  0.00  0.00     0.210 HD
ENDBRANCH   3  24
BRANCH   5  26
HETATM   26  O   UNK N   1      27.812  51.904  37.610  0.00  0.00    -0.379 OA
HETATM   27  H   UNK N   1      28.579  52.340  37.152  0.00  0.00     0.211 HD
ENDBRANCH   5  26
BRANCH   5  28
HETATM   28  C   UNK N   1      28.216  51.590  39.925  0.00  0.00     0.176 C 
HETATM   29  O   UNK N   1      29.335  51.769  40.380  0.00  0.00    -0.648 OA
BRANCH  28  30
HETATM   30  O   UNK N   1      27.507  50.515  40.333  0.00  0.00    -0.774 OA
HETATM   31  H   UNK N   1      27.733  49.620  40.043  0.00  0.00     0.167 HD
ENDBRANCH  28  30
ENDBRANCH   5  28
TORSDOF 11
ENDMDL
MODEL 6
REMARK VINA RESULT:      -6.4      3.261      5.164
REMARK  11 active torsions:
REMARK  status: ('A' for Active; 'I' for Inactive)
REMARK    1  A    between atoms: C_2  and  O_3 
REMARK    2  A    between atoms: C_2  and  C_20 
REMARK    3  A    between atoms: O_3  and  C_4 
REMARK    4  A    between atoms: C_5  and  O_6 
REMARK    5  A    between atoms: C_8  and  O_9 
REMARK    6  A    between atoms: C_12  and  O_13 
REMARK    7  A    between atoms: C_12  and  C_15 
REMARK    8  A    between atoms: C_15  and  O_17 
REMARK    9  A    between atoms: C_21  and  C_22 
REMARK   10  A    between atoms: C_24  and  O_25 
REMARK   11  A    between atoms: C_27  and  O_28 
ROOT
HETATM    1  C   UNK N   1      39.528  48.115  44.939  0.00  0.00     0.166 C 
HETATM    2  C   UNK N   1      40.114  49.377  45.618  0.00  0.00     0.176 C 
HETATM    3  C   UNK N   1      39.310  50.627  45.195  0.00  0.00     0.152 C 
HETATM    4  C   UNK N   1      39.340  50.789  43.656  0.00  0.00     0.083 C 
HETATM    5  C   UNK N   1      38.782  49.550  42.904  0.00  0.00     0.147 C 
HETATM    6  C   UNK N   1      39.545  48.288  43.405  0.00  0.00     0.084 C 
ENDROOT
BRANCH   1   7
HETATM    7  O   UNK N   1      40.270  46.984  45.241  0.00  0.00    -0.310 OA
BRANCH   7   8
HETATM    8  C   UNK N   1      39.896  45.998  46.099  0.00  0.00     0.283 C 
HETATM    9  O   UNK N   1      39.193  45.074  45.720  0.00  0.00    -0.260 OA
BRANCH   8  10
HETATM   10  C   UNK N   1      40.394  46.007  47.492  0.00  0.00     0.083 C 
HETATM   11  C   UNK N   1      40.250  44.937  48.298  0.00  0.00     0.017 C 
BRANCH  11  12
HETATM   12  C   UNK N   1      40.710  44.889  49.717  0.00  0.00    -0.033 A 
HETATM   13  C   UNK N   1      40.000  44.087  50.626  0.00  0.00     0.050 A 
HETATM   14  C   UNK N   1      40.392  44.003  51.969  0.00  0.00     0.099 A 
HETATM   15  C   UNK N   1      41.501  44.741  52.419  0.00  0.00     0.098 A 
HETATM   16  C   UNK N   1      42.208  45.550  51.521  0.00  0.00     0.040 A 
HETATM   17  C   UNK N   1      41.822  45.622  50.180  0.00  0.00     0.014 A 
BRANCH  14  18
HETATM   18  O   UNK N   1      39.695  43.210  52.810  0.00  0.00    -0.358 OA
HETATM   19  H   UNK N   1      40.036  42.358  53.119  0.00  0.00     0.218 HD
ENDBRANCH  14  18
BRANCH  15  20
HETATM   20  O   UNK N   1      41.882  44.671  53.713  0.00  0.00    -0.358 OA
HETATM   21  H   UNK N   1      41.409  44.122  54.354  0.00  0.00     0.218 HD
ENDBRANCH  15  20
ENDBRANCH  11  12
ENDBRANCH   8  10
ENDBRANCH   7   8
ENDBRANCH   1   7
BRANCH   2  22
HETATM   22  O   UNK N   1      41.465  49.516  45.252  0.00  0.00    -0.390 OA
HETATM   23  H   UNK N   1      41.787  48.616  44.984  0.00  0.00     0.210 HD
ENDBRANCH   2  22
BRANCH   3  24
HETATM   24  O   UNK N   1      37.991  50.519  45.666  0.00  0.00    -0.393 OA
HETATM   25  H   UNK N   1      37.404  50.939  44.985  0.00  0.00     0.210 HD
ENDBRANCH   3  24
BRANCH   5  26
HETATM   26  O   UNK N   1      39.052  49.722  41.533  0.00  0.00    -0.379 OA
HETATM   27  H   UNK N   1      39.888  49.229  41.321  0.00  0.00     0.211 HD
ENDBRANCH   5  26
BRANCH   5  28
HETATM   28  C   UNK N   1      37.266  49.459  43.071  0.00  0.00     0.176 C 
HETATM   29  O   UNK N   1      36.606  50.447  43.353  0.00  0.00    -0.648 OA
BRANCH  28  30
HETATM   30  O   UNK N   1      36.644  48.264  42.966  0.00  0.00    -0.774 OA
HETATM   31  H   UNK N   1      36.955  47.584  42.352  0.00  0.00     0.167 HD
ENDBRANCH  28  30
ENDBRANCH   5  28
TORSDOF 11
ENDMDL
MODEL 7
REMARK VINA RESULT:      -6.3      5.954      9.024
REMARK  11 active torsions:
REMARK  status: ('A' for Active; 'I' for Inactive)
REMARK    1  A    between atoms: C_2  and  O_3 
REMARK    2  A    between atoms: C_2  and  C_20 
REMARK    3  A    between atoms: O_3  and  C_4 
REMARK    4  A    between atoms: C_5  and  O_6 
REMARK    5  A    between atoms: C_8  and  O_9 
REMARK    6  A    between atoms: C_12  and  O_13 
REMARK    7  A    between atoms: C_12  and  C_15 
REMARK    8  A    between atoms: C_15  and  O_17 
REMARK    9  A    between atoms: C_21  and  C_22 
REMARK   10  A    between atoms: C_24  and  O_25 
REMARK   11  A    between atoms: C_27  and  O_28 
ROOT
HETATM    1  C   UNK N   1      39.490  47.791  44.992  0.00  0.00     0.166 C 
HETATM    2  C   UNK N   1      40.067  48.938  45.857  0.00  0.00     0.176 C 
HETATM    3  C   UNK N   1      41.309  48.443  46.633  0.00  0.00     0.152 C 
HETATM    4  C   UNK N   1      40.936  47.237  47.528  0.00  0.00     0.083 C 
HETATM    5  C   UNK N   1      40.332  46.050  46.729  0.00  0.00     0.147 C 
HETATM    6  C   UNK N   1      39.135  46.584  45.889  0.00  0.00     0.084 C 
ENDROOT
BRANCH   1   7
HETATM    7  O   UNK N   1      38.333  48.180  44.338  0.00  0.00    -0.310 OA
BRANCH   7   8
HETATM    8  C   UNK N   1      38.236  49.193  43.436  0.00  0.00     0.283 C 
HETATM    9  O   UNK N   1      39.040  49.293  42.521  0.00  0.00    -0.260 OA
BRANCH   8  10
HETATM   10  C   UNK N   1      37.112  50.150  43.521  0.00  0.00     0.083 C 
HETATM   11  C   UNK N   1      35.834  49.730  43.604  0.00  0.00     0.017 C 
BRANCH  11  12
HETATM   12  C   UNK N   1      34.655  50.643  43.672  0.00  0.00    -0.033 A 
HETATM   13  C   UNK N   1      33.629  50.486  42.726  0.00  0.00     0.050 A 
HETATM   14  C   UNK N   1      32.498  51.313  42.747  0.00  0.00     0.099 A 
HETATM   15  C   UNK N   1      32.393  52.326  43.717  0.00  0.00     0.098 A 
HETATM   16  C   UNK N   1      33.417  52.495  44.657  0.00  0.00     0.040 A 
HETATM   17  C   UNK N   1      34.537  51.661  44.642  0.00  0.00     0.014 A 
BRANCH  14  18
HETATM   18  O   UNK N   1      31.525  51.121  41.832  0.00  0.00    -0.358 OA
HETATM   19  H   UNK N   1      31.501  51.603  40.992  0.00  0.00     0.218 HD
ENDBRANCH  14  18
BRANCH  15  20
HETATM   20  O   UNK N   1      31.310  53.132  43.741  0.00  0.00    -0.358 OA
HETATM   21  H   UNK N   1      30.433  52.815  43.482  0.00  0.00     0.218 HD
ENDBRANCH  15  20
ENDBRANCH  11  12
ENDBRANCH   8  10
ENDBRANCH   7   8
ENDBRANCH   1   7
BRANCH   2  22
HETATM   22  O   UNK N   1      39.078  49.388  46.751  0.00  0.00    -0.390 OA
HETATM   23  H   UNK N   1      38.537  50.067  46.268  0.00  0.00     0.210 HD
ENDBRANCH   2  22
BRANCH   3  24
HETATM   24  O   UNK N   1      42.324  48.102  45.725  0.00  0.00    -0.393 OA
HETATM   25  H   UNK N   1      42.419  47.115  45.752  0.00  0.00     0.210 HD
ENDBRANCH   3  24
BRANCH   5  26
HETATM   26  O   UNK N   1      39.844  45.111  47.658  0.00  0.00    -0.379 OA
HETATM   27  H   UNK N   1      39.250  45.590  48.295  0.00  0.00     0.211 HD
ENDBRANCH   5  26
BRANCH   5  28
HETATM   28  C   UNK N   1      41.411  45.361  45.896  0.00  0.00     0.176 C 
HETATM   29  O   UNK N   1      41.441  45.487  44.681  0.00  0.00    -0.648 OA
BRANCH  28  30
HETATM   30  O   UNK N   1      42.314  44.553  46.493  0.00  0.00    -0.774 OA
HETATM   31  H   UNK N   1      42.820  43.899  45.990  0.00  0.00     0.167 HD
ENDBRANCH  28  30
ENDBRANCH   5  28
TORSDOF 11
ENDMDL
MODEL 8
REMARK VINA RESULT:      -6.3     13.731     16.613
REMARK  11 active torsions:
REMARK  status: ('A' for Active; 'I' for Inactive)
REMARK    1  A    between atoms: C_2  and  O_3 
REMARK    2  A    between atoms: C_2  and  C_20 
REMARK    3  A    between atoms: O_3  and  C_4 
REMARK    4  A    between atoms: C_5  and  O_6 
REMARK    5  A    between atoms: C_8  and  O_9 
REMARK    6  A    between atoms: C_12  and  O_13 
REMARK    7  A    between atoms: C_12  and  C_15 
REMARK    8  A    between atoms: C_15  and  O_17 
REMARK    9  A    between atoms: C_21  and  C_22 
REMARK   10  A    between atoms: C_24  and  O_25 
REMARK   11  A    between atoms: C_27  and  O_28 
ROOT
HETATM    1  C   UNK N   1      49.952  55.531  43.511  0.00  0.00     0.166 C 
HETATM    2  C   UNK N   1      49.431  54.843  44.797  0.00  0.00     0.176 C 
HETATM    3  C   UNK N   1      48.569  55.832  45.614  0.00  0.00     0.152 C 
HETATM    4  C   UNK N   1      49.395  57.088  45.981  0.00  0.00     0.083 C 
HETATM    5  C   UNK N   1      49.967  57.823  44.738  0.00  0.00     0.147 C 
HETATM    6  C   UNK N   1      50.762  56.793  43.882  0.00  0.00     0.084 C 
ENDROOT
BRANCH   1   7
HETATM    7  O   UNK N   1      50.788  54.695  42.790  0.00  0.00    -0.310 OA
BRANCH   7   8
HETATM    8  C   UNK N   1      51.019  54.769  41.452  0.00  0.00     0.283 C 
HETATM    9  O   UNK N   1      52.157  54.722  41.011  0.00  0.00    -0.260 OA
BRANCH   8  10
HETATM   10  C   UNK N   1      49.880  54.846  40.512  0.00  0.00     0.083 C 
HETATM   11  C   UNK N   1      49.274  56.017  40.233  0.00  0.00     0.017 C 
BRANCH  11  12
HETATM   12  C   UNK N   1      48.109  56.159  39.311  0.00  0.00    -0.033 A 
HETATM   13  C   UNK N   1      47.127  57.118  39.613  0.00  0.00     0.050 A 
HETATM   14  C   UNK N   1      46.015  57.295  38.779  0.00  0.00     0.099 A 
HETATM   15  C   UNK N   1      45.868  56.493  37.632  0.00  0.00     0.098 A 
HETATM   16  C   UNK N   1      46.837  55.529  37.331  0.00  0.00     0.040 A 
HETATM   17  C   UNK N   1      47.951  55.363  38.157  0.00  0.00     0.014 A 
BRANCH  14  18
HETATM   18  O   UNK N   1      45.101  58.237  39.091  0.00  0.00    -0.358 OA
HETATM   19  H   UNK N   1      44.480  58.133  39.827  0.00  0.00     0.218 HD
ENDBRANCH  14  18
BRANCH  15  20
HETATM   20  O   UNK N   1      44.796  56.653  36.827  0.00  0.00    -0.358 OA
HETATM   21  H   UNK N   1      44.779  57.321  36.127  0.00  0.00     0.218 HD
ENDBRANCH  15  20
ENDBRANCH  11  12
ENDBRANCH   8  10
ENDBRANCH   7   8
ENDBRANCH   1   7
BRANCH   2  22
HETATM   22  O   UNK N   1      50.525  54.399  45.561  0.00  0.00    -0.390 OA
HETATM   23  H   UNK N   1      51.269  54.221  44.927  0.00  0.00     0.210 HD
ENDBRANCH   2  22
BRANCH   3  24
HETATM   24  O   UNK N   1      47.425  56.177  44.877  0.00  0.00    -0.393 OA
HETATM   25  H   UNK N   1      47.729  56.727  44.109  0.00  0.00     0.210 HD
ENDBRANCH   3  24
BRANCH   5  26
HETATM   26  O   UNK N   1      50.862  58.810  45.196  0.00  0.00    -0.379 OA
HETATM   27  H   UNK N   1      50.988  58.679  46.173  0.00  0.00     0.211 HD
ENDBRANCH   5  26
BRANCH   5  28
HETATM   28  C   UNK N   1      48.850  58.529  43.972  0.00  0.00     0.176 C 
HETATM   29  O   UNK N   1      48.933  58.709  42.767  0.00  0.00    -0.648 OA
BRANCH  28  30
HETATM   30  O   UNK N   1      47.778  59.016  44.635  0.00  0.00    -0.774 OA
HETATM   31  H   UNK N   1      47.305  59.800  44.325  0.00  0.00     0.167 HD
ENDBRANCH  28  30
ENDBRANCH   5  28
TORSDOF 11
ENDMDL
MODEL 9
REMARK VINA RESULT:      -6.0     14.790     17.299
REMARK  11 active torsions:
REMARK  status: ('A' for Active; 'I' for Inactive)
REMARK    1  A    between atoms: C_2  and  O_3 
REMARK    2  A    between atoms: C_2  and  C_20 
REMARK    3  A    between atoms: O_3  and  C_4 
REMARK    4  A    between atoms: C_5  and  O_6 
REMARK    5  A    between atoms: C_8  and  O_9 
REMARK    6  A    between atoms: C_12  and  O_13 
REMARK    7  A    between atoms: C_12  and  C_15 
REMARK    8  A    between atoms: C_15  and  O_17 
REMARK    9  A    between atoms: C_21  and  C_22 
REMARK   10  A    between atoms: C_24  and  O_25 
REMARK   11  A    between atoms: C_27  and  O_28 
ROOT
HETATM    1  C   UNK N   1      27.915  55.330  39.510  0.00  0.00     0.166 C 
HETATM    2  C   UNK N   1      26.962  55.538  38.307  0.00  0.00     0.176 C 
HETATM    3  C   UNK N   1      25.777  54.549  38.394  0.00  0.00     0.152 C 
HETATM    4  C   UNK N   1      26.296  53.091  38.416  0.00  0.00     0.083 C 
HETATM    5  C   UNK N   1      27.275  52.812  39.589  0.00  0.00     0.147 C 
HETATM    6  C   UNK N   1      28.416  53.870  39.537  0.00  0.00     0.084 C 
ENDROOT
BRANCH   1   7
HETATM    7  O   UNK N   1      29.026  56.153  39.427  0.00  0.00    -0.310 OA
BRANCH   7   8
HETATM    8  C   UNK N   1      29.657  56.740  40.478  0.00  0.00     0.283 C 
HETATM    9  O   UNK N   1      29.361  57.871  40.833  0.00  0.00    -0.260 OA
BRANCH   8  10
HETATM   10  C   UNK N   1      30.671  55.982  41.244  0.00  0.00     0.083 C 
HETATM   11  C   UNK N   1      30.361  55.361  42.399  0.00  0.00     0.017 C 
BRANCH  11  12
HETATM   12  C   UNK N   1      31.340  54.599  43.229  0.00  0.00    -0.033 A 
HETATM   13  C   UNK N   1      32.237  55.317  44.037  0.00  0.00     0.050 A 
HETATM   14  C   UNK N   1      33.175  54.650  44.839  0.00  0.00     0.099 A 
HETATM   15  C   UNK N   1      33.231  53.245  44.824  0.00  0.00     0.098 A 
HETATM   16  C   UNK N   1      32.347  52.524  44.013  0.00  0.00     0.040 A 
HETATM   17  C   UNK N   1      31.406  53.190  43.224  0.00  0.00     0.014 A 
BRANCH  14  18
HETATM   18  O   UNK N   1      34.009  55.373  45.616  0.00  0.00    -0.358 OA
HETATM   19  H   UNK N   1      33.785  55.621  46.524  0.00  0.00     0.218 HD
ENDBRANCH  14  18
BRANCH  15  20
HETATM   20  O   UNK N   1      34.135  52.595  45.588  0.00  0.00    -0.358 OA
HETATM   21  H   UNK N   1      34.188  51.629  45.604  0.00  0.00     0.218 HD
ENDBRANCH  15  20
ENDBRANCH  11  12
ENDBRANCH   8  10
ENDBRANCH   7   8
ENDBRANCH   1   7
BRANCH   2  22
HETATM   22  O   UNK N   1      27.675  55.345  37.111  0.00  0.00    -0.390 OA
HETATM   23  H   UNK N   1      27.625  54.376  36.896  0.00  0.00     0.210 HD
ENDBRANCH   2  22
BRANCH   3  24
HETATM   24  O   UNK N   1      25.013  54.830  39.538  0.00  0.00    -0.393 OA
HETATM   25  H   UNK N   1      24.096  55.050  39.228  0.00  0.00     0.210 HD
ENDBRANCH   3  24
BRANCH   5  26
HETATM   26  O   UNK N   1      27.836  51.537  39.386  0.00  0.00    -0.379 OA
HETATM   27  H   UNK N   1      28.586  51.426  40.030  0.00  0.00     0.211 HD
ENDBRANCH   5  26
BRANCH   5  28
HETATM   28  C   UNK N   1      26.523  52.782  40.918  0.00  0.00     0.176 C 
HETATM   29  O   UNK N   1      26.575  53.728  41.690  0.00  0.00    -0.648 OA
BRANCH  28  30
HETATM   30  O   UNK N   1      25.835  51.677  41.282  0.00  0.00    -0.774 OA
HETATM   31  H   UNK N   1      24.870  51.678  41.338  0.00  0.00     0.167 HD
ENDBRANCH  28  30
ENDBRANCH   5  28
TORSDOF 11
ENDMDL
