MODEL 1
REMARK VINA RESULT:      -5.7      0.000      0.000
REMARK  6 active torsions:
REMARK  status: ('A' for Active; 'I' for Inactive)
REMARK    1  A    between atoms: C_3  and  O_4 
REMARK    2  A    between atoms: C_10  and  O_11 
REMARK    3  A    between atoms: C_15  and  C_16 
REMARK    4  A    between atoms: C_16  and  O_17 
REMARK    5  A    between atoms: C_22  and  O_23 
REMARK    6  A    between atoms: C_22  and  C_25 
ROOT
HETATM    1  O   UNK N   1      25.293  40.319  54.369  0.00  0.00    -0.292 OA
HETATM    2  C   UNK N   1      26.368  40.308  53.791  0.00  0.00     0.187 C 
HETATM    3  C   UNK N   1      26.583  41.118  52.531  0.00  0.00     0.224 C 
HETATM    4  C   UNK N   1      27.325  42.444  52.844  0.00  0.00     0.087 C 
HETATM    5  O   UNK N   1      28.299  42.286  53.864  0.00  0.00    -0.372 OA
HETATM    6  C   UNK N   1      29.224  41.213  53.754  0.00  0.00     0.134 C 
HETATM    7  C   UNK N   1      28.787  40.046  54.706  0.00  0.00     0.020 C 
HETATM    8  C   UNK N   1      27.457  39.347  54.214  0.00  0.00     0.201 C 
HETATM    9  C   UNK N   1      28.567  40.705  56.134  0.00  0.00     0.008 C 
HETATM   10  C   UNK N   1      29.649  41.762  56.634  0.00  0.00    -0.033 C 
HETATM   11  C   UNK N   1      30.025  41.210  58.065  0.00  0.00     0.028 C 
HETATM   12  C   UNK N   1      28.717  40.539  58.523  0.00  0.00     0.009 C 
HETATM   13  C   UNK N   1      28.357  39.721  57.298  0.00  0.00     0.007 C 
HETATM   14  C   UNK N   1      30.885  41.824  55.681  0.00  0.00     0.012 C 
HETATM   15  C   UNK N   1      30.587  41.822  54.161  0.00  0.00     0.034 C 
HETATM   16  C   UNK N   1      29.005  43.176  56.745  0.00  0.00     0.016 C 
HETATM   17  C   UNK N   1      29.867  38.913  54.727  0.00  0.00     0.021 C 
HETATM   18  C   UNK N   1      26.328  43.482  53.401  0.00  0.00     0.049 C 
HETATM   19  C   UNK N   1      27.960  43.035  51.566  0.00  0.00     0.049 C 
ENDROOT
BRANCH  11  20
HETATM   20  C   UNK N   1      30.718  42.111  59.158  0.00  0.00     0.063 C 
HETATM   21  C   UNK N   1      29.600  42.647  60.159  0.00  0.00     0.048 C 
HETATM   22  C   UNK N   1      30.095  42.957  61.618  0.00  0.00    -0.035 C 
HETATM   23  C   UNK N   1      31.576  43.317  61.569  0.00  0.00     0.029 C 
HETATM   24  C   UNK N   1      29.543  44.271  62.190  0.00  0.00     0.012 C 
HETATM   25  C   UNK N   1      29.748  41.771  62.572  0.00  0.00     0.016 C 
HETATM   26  C   UNK N   1      31.910  43.987  62.927  0.00  0.00     0.065 C 
HETATM   27  C   UNK N   1      32.469  42.164  61.075  0.00  0.00     0.011 C 
HETATM   28  C   UNK N   1      30.529  44.634  63.316  0.00  0.00     0.039 C 
HETATM   29  C   UNK N   1      31.770  41.320  59.975  0.00  0.00     0.039 C 
BRANCH  20  30
HETATM   30  O   UNK N   1      31.402  43.189  58.557  0.00  0.00    -0.389 OA
HETATM   31  H   UNK N   1      32.372  42.988  58.551  0.00  0.00     0.210 HD
ENDBRANCH  20  30
BRANCH  26  32
HETATM   32  O   UNK N   1      32.224  42.947  63.831  0.00  0.00    -0.389 OA
HETATM   33  H   UNK N   1      32.726  42.236  63.355  0.00  0.00     0.210 HD
ENDBRANCH  26  32
BRANCH  26  34
HETATM   34  C   UNK N   1      33.131  44.978  62.862  0.00  0.00     0.012 C 
HETATM   35  C   UNK N   1      32.821  46.409  63.350  0.00  0.00     0.012 C 
HETATM   36  C   UNK N   1      34.337  44.444  63.659  0.00  0.00     0.012 C 
ENDBRANCH  26  34
ENDBRANCH  11  20
BRANCH   8  37
HETATM   37  O   UNK N   1      27.724  38.505  53.117  0.00  0.00    -0.387 OA
HETATM   38  H   UNK N   1      27.718  39.072  52.301  0.00  0.00     0.210 HD
ENDBRANCH   8  37
BRANCH   3  39
HETATM   39  O   UNK N   1      25.375  41.353  51.850  0.00  0.00    -0.385 OA
HETATM   40  H   UNK N   1      25.568  42.022  51.142  0.00  0.00     0.210 HD
ENDBRANCH   3  39
TORSDOF 6
ENDMDL
MODEL 2
REMARK VINA RESULT:      -5.5      4.861      7.698
REMARK  6 active torsions:
REMARK  status: ('A' for Active; 'I' for Inactive)
REMARK    1  A    between atoms: C_3  and  O_4 
REMARK    2  A    between atoms: C_10  and  O_11 
REMARK    3  A    between atoms: C_15  and  C_16 
REMARK    4  A    between atoms: C_16  and  O_17 
REMARK    5  A    between atoms: C_22  and  O_23 
REMARK    6  A    between atoms: C_22  and  C_25 
ROOT
HETATM    1  O   UNK N   1      30.682  40.278  61.872  0.00  0.00    -0.292 OA
HETATM    2  C   UNK N   1      31.099  40.396  60.731  0.00  0.00     0.187 C 
HETATM    3  C   UNK N   1      30.759  39.373  59.668  0.00  0.00     0.224 C 
HETATM    4  C   UNK N   1      29.599  39.872  58.769  0.00  0.00     0.087 C 
HETATM    5  O   UNK N   1      29.665  41.271  58.534  0.00  0.00    -0.372 OA
HETATM    6  C   UNK N   1      30.901  41.826  58.105  0.00  0.00     0.134 C 
HETATM    7  C   UNK N   1      31.613  42.517  59.320  0.00  0.00     0.020 C 
HETATM    8  C   UNK N   1      32.112  41.467  60.390  0.00  0.00     0.201 C 
HETATM    9  C   UNK N   1      30.535  43.490  59.962  0.00  0.00     0.008 C 
HETATM   10  C   UNK N   1      29.645  44.365  58.973  0.00  0.00    -0.033 C 
HETATM   11  C   UNK N   1      29.825  45.822  59.554  0.00  0.00     0.028 C 
HETATM   12  C   UNK N   1      30.026  45.564  61.058  0.00  0.00     0.009 C 
HETATM   13  C   UNK N   1      31.064  44.459  61.034  0.00  0.00     0.007 C 
HETATM   14  C   UNK N   1      30.139  44.253  57.494  0.00  0.00     0.012 C 
HETATM   15  C   UNK N   1      30.518  42.836  56.998  0.00  0.00     0.034 C 
HETATM   16  C   UNK N   1      28.154  43.922  59.058  0.00  0.00     0.016 C 
HETATM   17  C   UNK N   1      32.900  43.274  58.850  0.00  0.00     0.021 C 
HETATM   18  C   UNK N   1      28.251  39.650  59.483  0.00  0.00     0.049 C 
HETATM   19  C   UNK N   1      29.562  39.093  57.434  0.00  0.00     0.049 C 
ENDROOT
BRANCH  11  20
HETATM   20  C   UNK N   1      28.822  46.992  59.217  0.00  0.00     0.063 C 
HETATM   21  C   UNK N   1      29.544  48.381  59.508  0.00  0.00     0.048 C 
HETATM   22  C   UNK N   1      29.037  49.596  58.649  0.00  0.00    -0.035 C 
HETATM   23  C   UNK N   1      27.587  49.346  58.251  0.00  0.00     0.029 C 
HETATM   24  C   UNK N   1      28.849  50.887  59.459  0.00  0.00     0.012 C 
HETATM   25  C   UNK N   1      30.003  49.853  57.450  0.00  0.00     0.016 C 
HETATM   26  C   UNK N   1      27.023  50.707  57.767  0.00  0.00     0.065 C 
HETATM   27  C   UNK N   1      27.406  48.110  57.350  0.00  0.00     0.011 C 
HETATM   28  C   UNK N   1      27.879  51.727  58.607  0.00  0.00     0.039 C 
HETATM   29  C   UNK N   1      28.385  46.966  57.731  0.00  0.00     0.039 C 
BRANCH  20  30
HETATM   30  O   UNK N   1      27.644  46.875  59.986  0.00  0.00    -0.389 OA
HETATM   31  H   UNK N   1      26.907  46.571  59.397  0.00  0.00     0.210 HD
ENDBRANCH  20  30
BRANCH  26  32
HETATM   32  O   UNK N   1      27.349  50.822  56.397  0.00  0.00    -0.389 OA
HETATM   33  H   UNK N   1      27.783  51.697  56.232  0.00  0.00     0.210 HD
ENDBRANCH  26  32
BRANCH  26  34
HETATM   34  C   UNK N   1      25.463  50.838  57.923  0.00  0.00     0.012 C 
HETATM   35  C   UNK N   1      25.005  52.026  58.796  0.00  0.00     0.012 C 
HETATM   36  C   UNK N   1      24.764  50.946  56.554  0.00  0.00     0.012 C 
ENDBRANCH  26  34
ENDBRANCH  11  20
BRANCH   8  37
HETATM   37  O   UNK N   1      33.274  40.816  59.932  0.00  0.00    -0.387 OA
HETATM   38  H   UNK N   1      34.037  41.434  60.081  0.00  0.00     0.210 HD
ENDBRANCH   8  37
BRANCH   3  39
HETATM   39  O   UNK N   1      30.472  38.116  60.229  0.00  0.00    -0.385 OA
HETATM   40  H   UNK N   1      30.633  37.439  59.520  0.00  0.00     0.210 HD
ENDBRANCH   3  39
TORSDOF 6
ENDMDL
MODEL 3
REMARK VINA RESULT:      -5.4      5.352      8.074
REMARK  6 active torsions:
REMARK  status: ('A' for Active; 'I' for Inactive)
REMARK    1  A    between atoms: C_3  and  O_4 
REMARK    2  A    between atoms: C_10  and  O_11 
REMARK    3  A    between atoms: C_15  and  C_16 
REMARK    4  A    between atoms: C_16  and  O_17 
REMARK    5  A    between atoms: C_22  and  O_23 
REMARK    6  A    between atoms: C_22  and  C_25 
ROOT
HETATM    1  O   UNK N   1      27.363  50.802  56.209  0.00  0.00    -0.292 OA
HETATM    2  C   UNK N   1      27.189  50.838  57.416  0.00  0.00     0.187 C 
HETATM    3  C   UNK N   1      25.822  51.126  57.997  0.00  0.00     0.224 C 
HETATM    4  C   UNK N   1      25.116  49.816  58.433  0.00  0.00     0.087 C 
HETATM    5  O   UNK N   1      26.027  48.870  58.974  0.00  0.00    -0.372 OA
HETATM    6  C   UNK N   1      26.934  49.304  59.977  0.00  0.00     0.134 C 
HETATM    7  C   UNK N   1      28.349  49.532  59.341  0.00  0.00     0.020 C 
HETATM    8  C   UNK N   1      28.366  50.774  58.364  0.00  0.00     0.201 C 
HETATM    9  C   UNK N   1      28.689  48.200  58.545  0.00  0.00     0.008 C 
HETATM   10  C   UNK N   1      28.362  46.811  59.253  0.00  0.00    -0.033 C 
HETATM   11  C   UNK N   1      29.732  46.037  59.129  0.00  0.00     0.028 C 
HETATM   12  C   UNK N   1      30.319  46.595  57.820  0.00  0.00     0.009 C 
HETATM   13  C   UNK N   1      30.132  48.086  58.022  0.00  0.00     0.007 C 
HETATM   14  C   UNK N   1      27.925  47.006  60.741  0.00  0.00     0.012 C 
HETATM   15  C   UNK N   1      26.938  48.166  61.025  0.00  0.00     0.034 C 
HETATM   16  C   UNK N   1      27.238  46.064  58.474  0.00  0.00     0.016 C 
HETATM   17  C   UNK N   1      29.408  49.858  60.446  0.00  0.00     0.021 C 
HETATM   18  C   UNK N   1      24.501  49.119  57.202  0.00  0.00     0.049 C 
HETATM   19  C   UNK N   1      23.974  50.110  59.431  0.00  0.00     0.049 C 
ENDROOT
BRANCH  11  20
HETATM   20  C   UNK N   1      29.827  44.469  59.275  0.00  0.00     0.063 C 
HETATM   21  C   UNK N   1      31.342  44.078  59.575  0.00  0.00     0.048 C 
HETATM   22  C   UNK N   1      31.545  42.751  60.393  0.00  0.00    -0.035 C 
HETATM   23  C   UNK N   1      30.360  41.828  60.136  0.00  0.00     0.029 C 
HETATM   24  C   UNK N   1      32.672  41.860  59.851  0.00  0.00     0.012 C 
HETATM   25  C   UNK N   1      31.798  43.076  61.898  0.00  0.00     0.016 C 
HETATM   26  C   UNK N   1      30.786  40.419  60.623  0.00  0.00     0.065 C 
HETATM   27  C   UNK N   1      29.019  42.404  60.626  0.00  0.00     0.011 C 
HETATM   28  C   UNK N   1      32.345  40.461  60.408  0.00  0.00     0.039 C 
HETATM   29  C   UNK N   1      28.945  43.943  60.435  0.00  0.00     0.039 C 
BRANCH  20  30
HETATM   30  O   UNK N   1      29.373  43.830  58.102  0.00  0.00    -0.389 OA
HETATM   31  H   UNK N   1      29.526  44.433  57.330  0.00  0.00     0.210 HD
ENDBRANCH  20  30
BRANCH  26  32
HETATM   32  O   UNK N   1      30.495  40.359  62.006  0.00  0.00    -0.389 OA
HETATM   33  H   UNK N   1      29.710  40.931  62.203  0.00  0.00     0.210 HD
ENDBRANCH  26  32
BRANCH  26  34
HETATM   34  C   UNK N   1      30.031  39.242  59.902  0.00  0.00     0.012 C 
HETATM   35  C   UNK N   1      29.590  39.556  58.457  0.00  0.00     0.012 C 
HETATM   36  C   UNK N   1      30.876  37.954  59.882  0.00  0.00     0.012 C 
ENDBRANCH  26  34
ENDBRANCH  11  20
BRANCH   8  37
HETATM   37  O   UNK N   1      28.378  51.975  59.101  0.00  0.00    -0.387 OA
HETATM   38  H   UNK N   1      29.019  51.856  59.850  0.00  0.00     0.210 HD
ENDBRANCH   8  37
BRANCH   3  39
HETATM   39  O   UNK N   1      25.024  51.869  57.108  0.00  0.00    -0.385 OA
HETATM   40  H   UNK N   1      24.083  51.589  57.261  0.00  0.00     0.210 HD
ENDBRANCH   3  39
TORSDOF 6
ENDMDL
MODEL 4
REMARK VINA RESULT:      -5.4      6.512      9.249
REMARK  6 active torsions:
REMARK  status: ('A' for Active; 'I' for Inactive)
REMARK    1  A    between atoms: C_3  and  O_4 
REMARK    2  A    between atoms: C_10  and  O_11 
REMARK    3  A    between atoms: C_15  and  C_16 
REMARK    4  A    between atoms: C_16  and  O_17 
REMARK    5  A    between atoms: C_22  and  O_23 
REMARK    6  A    between atoms: C_22  and  C_25 
ROOT
HETATM    1  O   UNK N   1      24.579  51.304  60.956  0.00  0.00    -0.292 OA
HETATM    2  C   UNK N   1      25.308  51.790  60.107  0.00  0.00     0.187 C 
HETATM    3  C   UNK N   1      26.041  53.089  60.361  0.00  0.00     0.224 C 
HETATM    4  C   UNK N   1      27.514  52.824  60.765  0.00  0.00     0.087 C 
HETATM    5  O   UNK N   1      28.072  51.719  60.070  0.00  0.00    -0.372 OA
HETATM    6  C   UNK N   1      27.927  51.667  58.658  0.00  0.00     0.134 C 
HETATM    7  C   UNK N   1      26.781  50.663  58.286  0.00  0.00     0.020 C 
HETATM    8  C   UNK N   1      25.359  51.204  58.713  0.00  0.00     0.201 C 
HETATM    9  C   UNK N   1      27.113  49.315  59.057  0.00  0.00     0.008 C 
HETATM   10  C   UNK N   1      28.626  48.815  59.054  0.00  0.00    -0.033 C 
HETATM   11  C   UNK N   1      28.487  47.319  58.569  0.00  0.00     0.028 C 
HETATM   12  C   UNK N   1      27.102  46.916  59.108  0.00  0.00     0.009 C 
HETATM   13  C   UNK N   1      26.258  48.097  58.670  0.00  0.00     0.007 C 
HETATM   14  C   UNK N   1      29.518  49.668  58.095  0.00  0.00     0.012 C 
HETATM   15  C   UNK N   1      29.307  51.201  58.136  0.00  0.00     0.034 C 
HETATM   16  C   UNK N   1      29.211  48.871  60.497  0.00  0.00     0.016 C 
HETATM   17  C   UNK N   1      26.701  50.464  56.735  0.00  0.00     0.021 C 
HETATM   18  C   UNK N   1      27.585  52.435  62.256  0.00  0.00     0.049 C 
HETATM   19  C   UNK N   1      28.377  54.090  60.564  0.00  0.00     0.049 C 
ENDROOT
BRANCH  11  20
HETATM   20  C   UNK N   1      29.621  46.249  58.809  0.00  0.00     0.063 C 
HETATM   21  C   UNK N   1      28.964  44.798  58.783  0.00  0.00     0.048 C 
HETATM   22  C   UNK N   1      29.919  43.635  58.330  0.00  0.00    -0.035 C 
HETATM   23  C   UNK N   1      31.356  44.020  58.661  0.00  0.00     0.029 C 
HETATM   24  C   UNK N   1      29.800  42.369  59.190  0.00  0.00     0.012 C 
HETATM   25  C   UNK N   1      29.671  43.286  56.828  0.00  0.00     0.016 C 
HETATM   26  C   UNK N   1      32.192  42.717  58.570  0.00  0.00     0.065 C 
HETATM   27  C   UNK N   1      31.846  45.266  57.899  0.00  0.00     0.011 C 
HETATM   28  C   UNK N   1      31.125  41.623  58.945  0.00  0.00     0.039 C 
HETATM   29  C   UNK N   1      30.714  46.313  57.713  0.00  0.00     0.039 C 
BRANCH  20  30
HETATM   30  O   UNK N   1      30.271  46.478  60.040  0.00  0.00    -0.389 OA
HETATM   31  H   UNK N   1      30.036  47.386  60.361  0.00  0.00     0.210 HD
ENDBRANCH  20  30
BRANCH  26  32
HETATM   32  O   UNK N   1      32.575  42.570  57.217  0.00  0.00    -0.389 OA
HETATM   33  H   UNK N   1      31.780  42.676  56.635  0.00  0.00     0.210 HD
ENDBRANCH  26  32
BRANCH  26  34
HETATM   34  C   UNK N   1      33.491  42.734  59.458  0.00  0.00     0.012 C 
HETATM   35  C   UNK N   1      33.292  43.322  60.871  0.00  0.00     0.012 C 
HETATM   36  C   UNK N   1      34.099  41.326  59.600  0.00  0.00     0.012 C 
ENDBRANCH  26  34
ENDBRANCH  11  20
BRANCH   8  37
HETATM   37  O   UNK N   1      24.928  52.205  57.820  0.00  0.00    -0.387 OA
HETATM   38  H   UNK N   1      25.470  52.116  56.992  0.00  0.00     0.210 HD
ENDBRANCH   8  37
BRANCH   3  39
HETATM   39  O   UNK N   1      25.380  53.882  61.315  0.00  0.00    -0.385 OA
HETATM   40  H   UNK N   1      25.199  53.300  62.099  0.00  0.00     0.210 HD
ENDBRANCH   3  39
TORSDOF 6
ENDMDL
MODEL 5
REMARK VINA RESULT:      -5.1      1.826      9.363
REMARK  6 active torsions:
REMARK  status: ('A' for Active; 'I' for Inactive)
REMARK    1  A    between atoms: C_3  and  O_4 
REMARK    2  A    between atoms: C_10  and  O_11 
REMARK    3  A    between atoms: C_15  and  C_16 
REMARK    4  A    between atoms: C_16  and  O_17 
REMARK    5  A    between atoms: C_22  and  O_23 
REMARK    6  A    between atoms: C_22  and  C_25 
ROOT
HETATM    1  O   UNK N   1      31.474  45.702  61.731  0.00  0.00    -0.292 OA
HETATM    2  C   UNK N   1      31.690  44.533  62.009  0.00  0.00     0.187 C 
HETATM    3  C   UNK N   1      31.195  43.938  63.309  0.00  0.00     0.224 C 
HETATM    4  C   UNK N   1      29.890  43.130  63.088  0.00  0.00     0.087 C 
HETATM    5  O   UNK N   1      29.889  42.441  61.847  0.00  0.00    -0.372 OA
HETATM    6  C   UNK N   1      31.024  41.655  61.510  0.00  0.00     0.134 C 
HETATM    7  C   UNK N   1      31.917  42.439  60.487  0.00  0.00     0.020 C 
HETATM    8  C   UNK N   1      32.610  43.697  61.147  0.00  0.00     0.201 C 
HETATM    9  C   UNK N   1      30.945  42.895  59.317  0.00  0.00     0.008 C 
HETATM   10  C   UNK N   1      29.884  41.834  58.781  0.00  0.00    -0.033 C 
HETATM   11  C   UNK N   1      30.132  41.865  57.222  0.00  0.00     0.028 C 
HETATM   12  C   UNK N   1      30.589  43.316  56.982  0.00  0.00     0.009 C 
HETATM   13  C   UNK N   1      31.629  43.485  58.072  0.00  0.00     0.007 C 
HETATM   14  C   UNK N   1      30.123  40.414  59.390  0.00  0.00     0.012 C 
HETATM   15  C   UNK N   1      30.440  40.357  60.904  0.00  0.00     0.034 C 
HETATM   16  C   UNK N   1      28.438  42.307  59.115  0.00  0.00     0.016 C 
HETATM   17  C   UNK N   1      33.092  41.539  59.975  0.00  0.00     0.021 C 
HETATM   18  C   UNK N   1      28.686  44.091  63.013  0.00  0.00     0.049 C 
HETATM   19  C   UNK N   1      29.644  42.152  64.259  0.00  0.00     0.049 C 
ENDROOT
BRANCH  11  20
HETATM   20  C   UNK N   1      29.064  41.335  56.190  0.00  0.00     0.063 C 
HETATM   21  C   UNK N   1      28.502  42.572  55.358  0.00  0.00     0.048 C 
HETATM   22  C   UNK N   1      27.992  42.233  53.911  0.00  0.00    -0.035 C 
HETATM   23  C   UNK N   1      27.532  40.781  53.878  0.00  0.00     0.029 C 
HETATM   24  C   UNK N   1      26.666  42.918  53.549  0.00  0.00     0.012 C 
HETATM   25  C   UNK N   1      29.085  42.591  52.854  0.00  0.00     0.016 C 
HETATM   26  C   UNK N   1      26.689  40.616  52.586  0.00  0.00     0.065 C 
HETATM   27  C   UNK N   1      28.666  39.774  54.152  0.00  0.00     0.011 C 
HETATM   28  C   UNK N   1      26.106  42.065  52.395  0.00  0.00     0.039 C 
HETATM   29  C   UNK N   1      29.678  40.315  55.199  0.00  0.00     0.039 C 
BRANCH  20  30
HETATM   30  O   UNK N   1      28.015  40.667  56.856  0.00  0.00    -0.389 OA
HETATM   31  H   UNK N   1      28.003  39.720  56.565  0.00  0.00     0.210 HD
ENDBRANCH  20  30
BRANCH  26  32
HETATM   32  O   UNK N   1      27.595  40.322  51.541  0.00  0.00    -0.389 OA
HETATM   33  H   UNK N   1      28.523  40.466  51.858  0.00  0.00     0.210 HD
ENDBRANCH  26  32
BRANCH  26  34
HETATM   34  C   UNK N   1      25.626  39.459  52.667  0.00  0.00     0.012 C 
HETATM   35  C   UNK N   1      24.723  39.505  53.917  0.00  0.00     0.012 C 
HETATM   36  C   UNK N   1      24.724  39.430  51.418  0.00  0.00     0.012 C 
ENDBRANCH  26  34
ENDBRANCH  11  20
BRANCH   8  37
HETATM   37  O   UNK N   1      33.690  43.292  61.956  0.00  0.00    -0.387 OA
HETATM   38  H   UNK N   1      33.867  44.026  62.602  0.00  0.00     0.210 HD
ENDBRANCH   8  37
BRANCH   3  39
HETATM   39  O   UNK N   1      31.030  44.921  64.302  0.00  0.00    -0.385 OA
HETATM   40  H   UNK N   1      30.584  45.696  63.870  0.00  0.00     0.210 HD
ENDBRANCH   3  39
TORSDOF 6
ENDMDL
MODEL 6
REMARK VINA RESULT:      -5.0      4.603      8.778
REMARK  6 active torsions:
REMARK  status: ('A' for Active; 'I' for Inactive)
REMARK    1  A    between atoms: C_3  and  O_4 
REMARK    2  A    between atoms: C_10  and  O_11 
REMARK    3  A    between atoms: C_15  and  C_16 
REMARK    4  A    between atoms: C_16  and  O_17 
REMARK    5  A    between atoms: C_22  and  O_23 
REMARK    6  A    between atoms: C_22  and  C_25 
ROOT
HETATM    1  O   UNK N   1      29.143  50.496  57.575  0.00  0.00    -0.292 OA
HETATM    2  C   UNK N   1      28.659  50.177  58.649  0.00  0.00     0.187 C 
HETATM    3  C   UNK N   1      27.315  50.716  59.088  0.00  0.00     0.224 C 
HETATM    4  C   UNK N   1      26.192  49.678  58.835  0.00  0.00     0.087 C 
HETATM    5  O   UNK N   1      26.629  48.347  59.065  0.00  0.00    -0.372 OA
HETATM    6  C   UNK N   1      27.306  48.060  60.281  0.00  0.00     0.134 C 
HETATM    7  C   UNK N   1      28.849  47.972  60.012  0.00  0.00     0.020 C 
HETATM    8  C   UNK N   1      29.468  49.380  59.649  0.00  0.00     0.201 C 
HETATM    9  C   UNK N   1      29.024  46.964  58.798  0.00  0.00     0.008 C 
HETATM   10  C   UNK N   1      28.153  45.630  58.813  0.00  0.00    -0.033 C 
HETATM   11  C   UNK N   1      29.243  44.511  58.585  0.00  0.00     0.028 C 
HETATM   12  C   UNK N   1      30.295  45.234  57.725  0.00  0.00     0.009 C 
HETATM   13  C   UNK N   1      30.468  46.530  58.493  0.00  0.00     0.007 C 
HETATM   14  C   UNK N   1      27.392  45.448  60.166  0.00  0.00     0.012 C 
HETATM   15  C   UNK N   1      26.716  46.711  60.754  0.00  0.00     0.034 C 
HETATM   16  C   UNK N   1      27.130  45.645  57.638  0.00  0.00     0.016 C 
HETATM   17  C   UNK N   1      29.609  47.503  61.297  0.00  0.00     0.021 C 
HETATM   18  C   UNK N   1      25.776  49.710  57.350  0.00  0.00     0.049 C 
HETATM   19  C   UNK N   1      24.942  50.000  59.684  0.00  0.00     0.049 C 
ENDROOT
BRANCH  11  20
HETATM   20  C   UNK N   1      28.869  43.063  58.083  0.00  0.00     0.063 C 
HETATM   21  C   UNK N   1      28.700  43.101  56.500  0.00  0.00     0.048 C 
HETATM   22  C   UNK N   1      29.000  41.748  55.758  0.00  0.00    -0.035 C 
HETATM   23  C   UNK N   1      28.729  40.592  56.714  0.00  0.00     0.029 C 
HETATM   24  C   UNK N   1      27.979  41.406  54.664  0.00  0.00     0.012 C 
HETATM   25  C   UNK N   1      30.441  41.768  55.158  0.00  0.00     0.016 C 
HETATM   26  C   UNK N   1      28.651  39.311  55.843  0.00  0.00     0.065 C 
HETATM   27  C   UNK N   1      29.651  40.590  57.948  0.00  0.00     0.011 C 
HETATM   28  C   UNK N   1      28.130  39.885  54.473  0.00  0.00     0.039 C 
HETATM   29  C   UNK N   1      29.969  42.030  58.435  0.00  0.00     0.039 C 
BRANCH  20  30
HETATM   30  O   UNK N   1      27.682  42.613  58.698  0.00  0.00    -0.389 OA
HETATM   31  H   UNK N   1      27.275  43.367  59.196  0.00  0.00     0.210 HD
ENDBRANCH  20  30
BRANCH  26  32
HETATM   32  O   UNK N   1      29.974  38.837  55.692  0.00  0.00    -0.389 OA
HETATM   33  H   UNK N   1      30.132  38.594  54.744  0.00  0.00     0.210 HD
ENDBRANCH  26  32
BRANCH  26  34
HETATM   34  C   UNK N   1      27.779  38.166  56.477  0.00  0.00     0.012 C 
HETATM   35  C   UNK N   1      26.514  38.657  57.213  0.00  0.00     0.012 C 
HETATM   36  C   UNK N   1      27.352  37.127  55.422  0.00  0.00     0.012 C 
ENDBRANCH  26  34
ENDBRANCH  11  20
BRANCH   8  37
HETATM   37  O   UNK N   1      29.599  50.170  60.808  0.00  0.00    -0.387 OA
HETATM   38  H   UNK N   1      29.807  51.096  60.514  0.00  0.00     0.210 HD
ENDBRANCH   8  37
BRANCH   3  39
HETATM   39  O   UNK N   1      27.024  51.949  58.477  0.00  0.00    -0.385 OA
HETATM   40  H   UNK N   1      26.160  52.261  58.854  0.00  0.00     0.210 HD
ENDBRANCH   3  39
TORSDOF 6
ENDMDL
MODEL 7
REMARK VINA RESULT:      -5.0     18.488     23.298
REMARK  6 active torsions:
REMARK  status: ('A' for Active; 'I' for Inactive)
REMARK    1  A    between atoms: C_3  and  O_4 
REMARK    2  A    between atoms: C_10  and  O_11 
REMARK    3  A    between atoms: C_15  and  C_16 
REMARK    4  A    between atoms: C_16  and  O_17 
REMARK    5  A    between atoms: C_22  and  O_23 
REMARK    6  A    between atoms: C_22  and  C_25 
ROOT
HETATM    1  O   UNK N   1      41.845  55.144  63.075  0.00  0.00    -0.292 OA
HETATM    2  C   UNK N   1      42.894  55.065  63.694  0.00  0.00     0.187 C 
HETATM    3  C   UNK N   1      43.179  53.884  64.595  0.00  0.00     0.224 C 
HETATM    4  C   UNK N   1      44.094  52.853  63.886  0.00  0.00     0.087 C 
HETATM    5  O   UNK N   1      45.067  53.476  63.061  0.00  0.00    -0.372 OA
HETATM    6  C   UNK N   1      45.841  54.533  63.611  0.00  0.00     0.134 C 
HETATM    7  C   UNK N   1      45.281  55.908  63.107  0.00  0.00     0.020 C 
HETATM    8  C   UNK N   1      43.860  56.229  63.719  0.00  0.00     0.201 C 
HETATM    9  C   UNK N   1      45.188  55.790  61.526  0.00  0.00     0.008 C 
HETATM   10  C   UNK N   1      46.410  55.113  60.762  0.00  0.00    -0.033 C 
HETATM   11  C   UNK N   1      46.749  56.182  59.651  0.00  0.00     0.028 C 
HETATM   12  C   UNK N   1      45.378  56.823  59.369  0.00  0.00     0.009 C 
HETATM   13  C   UNK N   1      44.883  57.097  60.775  0.00  0.00     0.007 C 
HETATM   14  C   UNK N   1      47.619  54.848  61.717  0.00  0.00     0.012 C 
HETATM   15  C   UNK N   1      47.282  54.268  63.113  0.00  0.00     0.034 C 
HETATM   16  C   UNK N   1      45.959  53.771  60.110  0.00  0.00     0.016 C 
HETATM   17  C   UNK N   1      46.206  57.085  63.567  0.00  0.00     0.021 C 
HETATM   18  C   UNK N   1      43.257  51.982  62.927  0.00  0.00     0.049 C 
HETATM   19  C   UNK N   1      44.767  51.914  64.913  0.00  0.00     0.049 C 
ENDROOT
BRANCH  11  20
HETATM   20  C   UNK N   1      47.582  55.820  58.361  0.00  0.00     0.063 C 
HETATM   21  C   UNK N   1      47.494  57.040  57.340  0.00  0.00     0.048 C 
HETATM   22  C   UNK N   1      48.720  57.193  56.369  0.00  0.00    -0.035 C 
HETATM   23  C   UNK N   1      49.356  55.825  56.159  0.00  0.00     0.029 C 
HETATM   24  C   UNK N   1      48.321  57.503  54.918  0.00  0.00     0.012 C 
HETATM   25  C   UNK N   1      49.698  58.288  56.900  0.00  0.00     0.016 C 
HETATM   26  C   UNK N   1      50.278  55.954  54.918  0.00  0.00     0.065 C 
HETATM   27  C   UNK N   1      49.937  55.216  57.449  0.00  0.00     0.011 C 
HETATM   28  C   UNK N   1      49.551  57.080  54.093  0.00  0.00     0.039 C 
HETATM   29  C   UNK N   1      49.073  55.563  58.692  0.00  0.00     0.039 C 
BRANCH  20  30
HETATM   30  O   UNK N   1      47.092  54.639  57.766  0.00  0.00    -0.389 OA
HETATM   31  H   UNK N   1      46.279  54.348  58.254  0.00  0.00     0.210 HD
ENDBRANCH  20  30
BRANCH  26  32
HETATM   32  O   UNK N   1      51.525  56.430  55.382  0.00  0.00    -0.389 OA
HETATM   33  H   UNK N   1      52.103  55.661  55.623  0.00  0.00     0.210 HD
ENDBRANCH  26  32
BRANCH  26  34
HETATM   34  C   UNK N   1      50.512  54.597  54.158  0.00  0.00     0.012 C 
HETATM   35  C   UNK N   1      49.923  54.552  52.732  0.00  0.00     0.012 C 
HETATM   36  C   UNK N   1      52.010  54.245  54.075  0.00  0.00     0.012 C 
ENDBRANCH  26  34
ENDBRANCH  11  20
BRANCH   8  37
HETATM   37  O   UNK N   1      43.986  56.642  65.060  0.00  0.00    -0.387 OA
HETATM   38  H   UNK N   1      44.156  55.828  65.605  0.00  0.00     0.210 HD
ENDBRANCH   8  37
BRANCH   3  39
HETATM   39  O   UNK N   1      41.994  53.286  65.061  0.00  0.00    -0.385 OA
HETATM   40  H   UNK N   1      42.132  53.079  66.022  0.00  0.00     0.210 HD
ENDBRANCH   3  39
TORSDOF 6
ENDMDL
MODEL 8
REMARK VINA RESULT:      -4.7     17.610     22.780
REMARK  6 active torsions:
REMARK  status: ('A' for Active; 'I' for Inactive)
REMARK    1  A    between atoms: C_3  and  O_4 
REMARK    2  A    between atoms: C_10  and  O_11 
REMARK    3  A    between atoms: C_15  and  C_16 
REMARK    4  A    between atoms: C_16  and  O_17 
REMARK    5  A    between atoms: C_22  and  O_23 
REMARK    6  A    between atoms: C_22  and  C_25 
ROOT
HETATM    1  O   UNK N   1      41.967  53.055  63.249  0.00  0.00    -0.292 OA
HETATM    2  C   UNK N   1      43.063  52.872  63.754  0.00  0.00     0.187 C 
HETATM    3  C   UNK N   1      43.533  51.478  64.109  0.00  0.00     0.224 C 
HETATM    4  C   UNK N   1      44.489  50.921  63.023  0.00  0.00     0.087 C 
HETATM    5  O   UNK N   1      45.328  51.928  62.478  0.00  0.00    -0.372 OA
HETATM    6  C   UNK N   1      46.033  52.776  63.373  0.00  0.00     0.134 C 
HETATM    7  C   UNK N   1      45.302  54.161  63.468  0.00  0.00     0.020 C 
HETATM    8  C   UNK N   1      43.907  54.044  64.202  0.00  0.00     0.201 C 
HETATM    9  C   UNK N   1      45.098  54.651  61.971  0.00  0.00     0.008 C 
HETATM   10  C   UNK N   1      46.319  54.476  60.963  0.00  0.00    -0.033 C 
HETATM   11  C   UNK N   1      46.463  55.924  60.351  0.00  0.00     0.028 C 
HETATM   12  C   UNK N   1      45.017  56.452  60.388  0.00  0.00     0.009 C 
HETATM   13  C   UNK N   1      44.607  56.099  61.804  0.00  0.00     0.007 C 
HETATM   14  C   UNK N   1      47.618  54.013  61.698  0.00  0.00     0.012 C 
HETATM   15  C   UNK N   1      47.450  52.902  62.765  0.00  0.00     0.034 C 
HETATM   16  C   UNK N   1      45.954  53.446  59.853  0.00  0.00     0.016 C 
HETATM   17  C   UNK N   1      46.138  55.171  64.322  0.00  0.00     0.021 C 
HETATM   18  C   UNK N   1      43.670  50.393  61.827  0.00  0.00     0.049 C 
HETATM   19  C   UNK N   1      45.329  49.748  63.577  0.00  0.00     0.049 C 
ENDROOT
BRANCH  11  20
HETATM   20  C   UNK N   1      47.225  56.193  58.997  0.00  0.00     0.063 C 
HETATM   21  C   UNK N   1      48.452  57.167  59.288  0.00  0.00     0.048 C 
HETATM   22  C   UNK N   1      49.672  57.023  58.309  0.00  0.00    -0.035 C 
HETATM   23  C   UNK N   1      49.168  56.508  56.966  0.00  0.00     0.029 C 
HETATM   24  C   UNK N   1      50.257  58.368  57.851  0.00  0.00     0.012 C 
HETATM   25  C   UNK N   1      50.789  56.149  58.960  0.00  0.00     0.016 C 
HETATM   26  C   UNK N   1      50.306  56.760  55.943  0.00  0.00     0.065 C 
HETATM   27  C   UNK N   1      48.546  55.102  57.045  0.00  0.00     0.011 C 
HETATM   28  C   UNK N   1      51.015  58.025  56.555  0.00  0.00     0.039 C 
HETATM   29  C   UNK N   1      47.774  54.884  58.375  0.00  0.00     0.039 C 
BRANCH  20  30
HETATM   30  O   UNK N   1      46.358  56.760  58.040  0.00  0.00    -0.389 OA
HETATM   31  H   UNK N   1      46.487  57.743  58.035  0.00  0.00     0.210 HD
ENDBRANCH  20  30
BRANCH  26  32
HETATM   32  O   UNK N   1      51.173  55.645  56.012  0.00  0.00    -0.389 OA
HETATM   33  H   UNK N   1      51.802  55.668  55.246  0.00  0.00     0.210 HD
ENDBRANCH  26  32
BRANCH  26  34
HETATM   34  C   UNK N   1      49.804  56.912  54.460  0.00  0.00     0.012 C 
HETATM   35  C   UNK N   1      49.868  55.614  53.627  0.00  0.00     0.012 C 
HETATM   36  C   UNK N   1      48.363  57.455  54.401  0.00  0.00     0.012 C 
ENDBRANCH  26  34
ENDBRANCH  11  20
BRANCH   8  37
HETATM   37  O   UNK N   1      44.095  53.919  65.592  0.00  0.00    -0.387 OA
HETATM   38  H   UNK N   1      43.699  53.051  65.868  0.00  0.00     0.210 HD
ENDBRANCH   8  37
BRANCH   3  39
HETATM   39  O   UNK N   1      42.453  50.607  64.341  0.00  0.00    -0.385 OA
HETATM   40  H   UNK N   1      42.527  49.873  63.676  0.00  0.00     0.210 HD
ENDBRANCH   3  39
TORSDOF 6
ENDMDL
MODEL 9
REMARK VINA RESULT:      -4.7     16.715     20.639
REMARK  6 active torsions:
REMARK  status: ('A' for Active; 'I' for Inactive)
REMARK    1  A    between atoms: C_3  and  O_4 
REMARK    2  A    between atoms: C_10  and  O_11 
REMARK    3  A    between atoms: C_15  and  C_16 
REMARK    4  A    between atoms: C_16  and  O_17 
REMARK    5  A    between atoms: C_22  and  O_23 
REMARK    6  A    between atoms: C_22  and  C_25 
ROOT
HETATM    1  O   UNK N   1      24.901  55.695  41.257  0.00  0.00    -0.292 OA
HETATM    2  C   UNK N   1      25.585  56.065  40.317  0.00  0.00     0.187 C 
HETATM    3  C   UNK N   1      26.008  57.512  40.184  0.00  0.00     0.224 C 
HETATM    4  C   UNK N   1      27.462  57.713  40.682  0.00  0.00     0.087 C 
HETATM    5  O   UNK N   1      28.296  56.609  40.364  0.00  0.00    -0.372 OA
HETATM    6  C   UNK N   1      28.290  56.121  39.029  0.00  0.00     0.134 C 
HETATM    7  C   UNK N   1      27.415  54.822  38.952  0.00  0.00     0.020 C 
HETATM    8  C   UNK N   1      25.879  55.129  39.165  0.00  0.00     0.201 C 
HETATM    9  C   UNK N   1      27.950  53.865  40.100  0.00  0.00     0.008 C 
HETATM   10  C   UNK N   1      29.527  53.738  40.281  0.00  0.00    -0.033 C 
HETATM   11  C   UNK N   1      29.746  52.174  40.265  0.00  0.00     0.028 C 
HETATM   12  C   UNK N   1      28.433  51.644  40.870  0.00  0.00     0.009 C 
HETATM   13  C   UNK N   1      27.403  52.427  40.079  0.00  0.00     0.007 C 
HETATM   14  C   UNK N   1      30.305  54.455  39.129  0.00  0.00     0.012 C 
HETATM   15  C   UNK N   1      29.777  55.846  38.702  0.00  0.00     0.034 C 
HETATM   16  C   UNK N   1      29.960  54.337  41.652  0.00  0.00     0.016 C 
HETATM   17  C   UNK N   1      27.514  54.171  37.531  0.00  0.00     0.021 C 
HETATM   18  C   UNK N   1      27.481  57.797  42.222  0.00  0.00     0.049 C 
HETATM   19  C   UNK N   1      28.057  59.028  40.128  0.00  0.00     0.049 C 
ENDROOT
BRANCH  11  20
HETATM   20  C   UNK N   1      31.051  51.502  40.840  0.00  0.00     0.063 C 
HETATM   21  C   UNK N   1      31.516  52.313  42.130  0.00  0.00     0.048 C 
HETATM   22  C   UNK N   1      32.317  51.482  43.196  0.00  0.00    -0.035 C 
HETATM   23  C   UNK N   1      33.029  50.333  42.491  0.00  0.00     0.029 C 
HETATM   24  C   UNK N   1      33.541  52.219  43.759  0.00  0.00     0.012 C 
HETATM   25  C   UNK N   1      31.374  51.043  44.361  0.00  0.00     0.016 C 
HETATM   26  C   UNK N   1      34.095  49.801  43.484  0.00  0.00     0.065 C 
HETATM   27  C   UNK N   1      32.064  49.327  41.836  0.00  0.00     0.011 C 
HETATM   28  C   UNK N   1      34.433  51.093  44.316  0.00  0.00     0.039 C 
HETATM   29  C   UNK N   1      30.808  50.027  41.249  0.00  0.00     0.039 C 
BRANCH  20  30
HETATM   30  O   UNK N   1      32.074  51.486  39.869  0.00  0.00    -0.389 OA
HETATM   31  H   UNK N   1      32.805  52.088  40.165  0.00  0.00     0.210 HD
ENDBRANCH  20  30
BRANCH  26  32
HETATM   32  O   UNK N   1      33.448  48.854  44.311  0.00  0.00    -0.389 OA
HETATM   33  H   UNK N   1      33.501  47.957  43.891  0.00  0.00     0.210 HD
ENDBRANCH  26  32
BRANCH  26  34
HETATM   34  C   UNK N   1      35.318  49.101  42.786  0.00  0.00     0.012 C 
HETATM   35  C   UNK N   1      36.687  49.741  43.102  0.00  0.00     0.012 C 
HETATM   36  C   UNK N   1      35.391  47.603  43.137  0.00  0.00     0.012 C 
ENDBRANCH  26  34
ENDBRANCH  11  20
BRANCH   8  37
HETATM   37  O   UNK N   1      25.330  55.707  38.004  0.00  0.00    -0.387 OA
HETATM   38  H   UNK N   1      25.055  54.963  37.405  0.00  0.00     0.210 HD
ENDBRANCH   8  37
BRANCH   3  39
HETATM   39  O   UNK N   1      25.115  58.378  40.841  0.00  0.00    -0.385 OA
HETATM   40  H   UNK N   1      25.661  59.096  41.257  0.00  0.00     0.210 HD
ENDBRANCH   3  39
TORSDOF 6
ENDMDL
