MODEL 1
REMARK VINA RESULT:      -5.9      0.000      0.000
REMARK  6 active torsions:
REMARK  status: ('A' for Active; 'I' for Inactive)
REMARK    1  A    between atoms: C_7  and  O_8 
REMARK    2  A    between atoms: C_10  and  O_11 
REMARK    3  A    between atoms: C_15  and  C_16 
REMARK    4  A    between atoms: C_16  and  O_17 
REMARK    5  A    between atoms: C_22  and  O_23 
REMARK    6  A    between atoms: C_22  and  C_25 
ROOT
HETATM    1  O   UNK N   1      25.573  50.742  58.348  0.00  0.00    -0.292 OA
HETATM    2  C   UNK N   1      26.688  50.836  58.843  0.00  0.00     0.191 C 
HETATM    3  C   UNK N   1      26.857  50.687  60.357  0.00  0.00     0.117 C 
HETATM    4  O   UNK N   1      27.760  49.629  60.678  0.00  0.00    -0.367 OA
HETATM    5  C   UNK N   1      27.603  48.457  59.877  0.00  0.00     0.134 C 
HETATM    6  C   UNK N   1      28.525  48.456  58.572  0.00  0.00     0.015 C 
HETATM    7  C   UNK N   1      29.011  49.923  58.234  0.00  0.00     0.165 C 
HETATM    8  C   UNK N   1      27.894  50.969  57.928  0.00  0.00     0.220 C 
HETATM    9  C   UNK N   1      29.802  47.532  58.816  0.00  0.00     0.007 C 
HETATM   10  C   UNK N   1      29.536  46.082  59.389  0.00  0.00    -0.033 C 
HETATM   11  C   UNK N   1      29.806  45.135  58.148  0.00  0.00     0.028 C 
HETATM   12  C   UNK N   1      31.044  45.844  57.531  0.00  0.00     0.009 C 
HETATM   13  C   UNK N   1      30.689  47.322  57.561  0.00  0.00     0.007 C 
HETATM   14  C   UNK N   1      28.117  45.981  60.037  0.00  0.00     0.012 C 
HETATM   15  C   UNK N   1      27.792  47.253  60.818  0.00  0.00     0.034 C 
HETATM   16  C   UNK N   1      30.578  45.808  60.537  0.00  0.00     0.016 C 
HETATM   17  C   UNK N   1      27.662  47.938  57.369  0.00  0.00     0.021 C 
HETATM   18  C   UNK N   1      25.503  50.434  61.064  0.00  0.00     0.054 C 
HETATM   19  C   UNK N   1      27.441  51.992  60.922  0.00  0.00     0.054 C 
ENDROOT
BRANCH  11  20
HETATM   20  C   UNK N   1      30.056  43.571  58.363  0.00  0.00     0.063 C 
HETATM   21  C   UNK N   1      28.779  42.672  58.594  0.00  0.00     0.048 C 
HETATM   22  C   UNK N   1      27.971  42.237  57.326  0.00  0.00    -0.035 C 
HETATM   23  C   UNK N   1      28.954  41.577  56.353  0.00  0.00     0.029 C 
HETATM   24  C   UNK N   1      27.046  41.035  57.575  0.00  0.00     0.012 C 
HETATM   25  C   UNK N   1      27.119  43.396  56.736  0.00  0.00     0.016 C 
HETATM   26  C   UNK N   1      28.084  40.824  55.312  0.00  0.00     0.065 C 
HETATM   27  C   UNK N   1      30.056  42.551  55.911  0.00  0.00     0.011 C 
HETATM   28  C   UNK N   1      26.821  40.434  56.171  0.00  0.00     0.039 C 
HETATM   29  C   UNK N   1      30.872  42.928  57.170  0.00  0.00     0.039 C 
BRANCH  20  30
HETATM   30  O   UNK N   1      30.827  43.430  59.540  0.00  0.00    -0.389 OA
HETATM   31  H   UNK N   1      30.932  42.469  59.764  0.00  0.00     0.210 HD
ENDBRANCH  20  30
BRANCH  26  32
HETATM   32  O   UNK N   1      27.732  41.762  54.316  0.00  0.00    -0.389 OA
HETATM   33  H   UNK N   1      26.747  41.756  54.200  0.00  0.00     0.210 HD
ENDBRANCH  26  32
BRANCH  26  34
HETATM   34  C   UNK N   1      28.819  39.607  54.627  0.00  0.00     0.012 C 
HETATM   35  C   UNK N   1      29.518  38.634  55.606  0.00  0.00     0.012 C 
HETATM   36  C   UNK N   1      27.861  38.780  53.746  0.00  0.00     0.012 C 
ENDBRANCH  26  34
ENDBRANCH  11  20
BRANCH   7  37
HETATM   37  O   UNK N   1      29.800  50.396  59.302  0.00  0.00    -0.392 OA
HETATM   38  H   UNK N   1      30.368  51.132  58.955  0.00  0.00     0.210 HD
ENDBRANCH   7  37
BRANCH   8  39
HETATM   39  O   UNK N   1      27.487  50.836  56.588  0.00  0.00    -0.385 OA
HETATM   40  H   UNK N   1      28.312  50.805  56.034  0.00  0.00     0.210 HD
ENDBRANCH   8  39
TORSDOF 6
ENDMDL
MODEL 2
REMARK VINA RESULT:      -5.5      3.790      6.171
REMARK  6 active torsions:
REMARK  status: ('A' for Active; 'I' for Inactive)
REMARK    1  A    between atoms: C_7  and  O_8 
REMARK    2  A    between atoms: C_10  and  O_11 
REMARK    3  A    between atoms: C_15  and  C_16 
REMARK    4  A    between atoms: C_16  and  O_17 
REMARK    5  A    between atoms: C_22  and  O_23 
REMARK    6  A    between atoms: C_22  and  C_25 
ROOT
HETATM    1  O   UNK N   1      28.597  45.634  61.125  0.00  0.00    -0.292 OA
HETATM    2  C   UNK N   1      29.362  44.679  61.085  0.00  0.00     0.191 C 
HETATM    3  C   UNK N   1      28.920  43.333  61.665  0.00  0.00     0.117 C 
HETATM    4  O   UNK N   1      28.973  42.301  60.680  0.00  0.00    -0.367 OA
HETATM    5  C   UNK N   1      28.499  42.691  59.391  0.00  0.00     0.134 C 
HETATM    6  C   UNK N   1      29.653  43.255  58.439  0.00  0.00     0.015 C 
HETATM    7  C   UNK N   1      30.913  43.690  59.290  0.00  0.00     0.165 C 
HETATM    8  C   UNK N   1      30.681  44.820  60.342  0.00  0.00     0.220 C 
HETATM    9  C   UNK N   1      30.094  42.126  57.402  0.00  0.00     0.007 C 
HETATM   10  C   UNK N   1      28.940  41.393  56.609  0.00  0.00    -0.033 C 
HETATM   11  C   UNK N   1      29.064  41.976  55.141  0.00  0.00     0.028 C 
HETATM   12  C   UNK N   1      30.612  42.025  55.001  0.00  0.00     0.009 C 
HETATM   13  C   UNK N   1      31.094  42.609  56.319  0.00  0.00     0.007 C 
HETATM   14  C   UNK N   1      27.558  41.587  57.313  0.00  0.00     0.012 C 
HETATM   15  C   UNK N   1      27.711  41.494  58.830  0.00  0.00     0.034 C 
HETATM   16  C   UNK N   1      29.240  39.847  56.622  0.00  0.00     0.016 C 
HETATM   17  C   UNK N   1      29.097  44.525  57.704  0.00  0.00     0.021 C 
HETATM   18  C   UNK N   1      27.491  43.403  62.255  0.00  0.00     0.054 C 
HETATM   19  C   UNK N   1      29.876  42.946  62.804  0.00  0.00     0.054 C 
ENDROOT
BRANCH  11  20
HETATM   20  C   UNK N   1      28.373  41.226  53.911  0.00  0.00     0.063 C 
HETATM   21  C   UNK N   1      26.804  41.062  53.970  0.00  0.00     0.048 C 
HETATM   22  C   UNK N   1      25.939  42.293  53.539  0.00  0.00    -0.035 C 
HETATM   23  C   UNK N   1      26.407  42.724  52.144  0.00  0.00     0.029 C 
HETATM   24  C   UNK N   1      24.486  41.927  53.194  0.00  0.00     0.012 C 
HETATM   25  C   UNK N   1      25.919  43.413  54.615  0.00  0.00     0.016 C 
HETATM   26  C   UNK N   1      25.301  43.664  51.594  0.00  0.00     0.065 C 
HETATM   27  C   UNK N   1      27.882  43.150  52.147  0.00  0.00     0.011 C 
HETATM   28  C   UNK N   1      24.011  43.081  52.286  0.00  0.00     0.039 C 
HETATM   29  C   UNK N   1      28.721  41.907  52.526  0.00  0.00     0.039 C 
BRANCH  20  30
HETATM   30  O   UNK N   1      28.884  39.908  53.886  0.00  0.00    -0.389 OA
HETATM   31  H   UNK N   1      29.747  39.869  54.375  0.00  0.00     0.210 HD
ENDBRANCH  20  30
BRANCH  26  32
HETATM   32  O   UNK N   1      25.581  44.958  52.086  0.00  0.00    -0.389 OA
HETATM   33  H   UNK N   1      25.378  45.625  51.379  0.00  0.00     0.210 HD
ENDBRANCH  26  32
BRANCH  26  34
HETATM   34  C   UNK N   1      25.239  43.721  50.018  0.00  0.00     0.012 C 
HETATM   35  C   UNK N   1      25.220  42.342  49.317  0.00  0.00     0.012 C 
HETATM   36  C   UNK N   1      24.016  44.519  49.521  0.00  0.00     0.012 C 
ENDBRANCH  26  34
ENDBRANCH  11  20
BRANCH   7  37
HETATM   37  O   UNK N   1      31.430  42.555  59.946  0.00  0.00    -0.392 OA
HETATM   38  H   UNK N   1      31.964  42.042  59.285  0.00  0.00     0.210 HD
ENDBRANCH   7  37
BRANCH   8  39
HETATM   39  O   UNK N   1      30.731  46.070  59.700  0.00  0.00    -0.385 OA
HETATM   40  H   UNK N   1      31.156  45.927  58.813  0.00  0.00     0.210 HD
ENDBRANCH   8  39
TORSDOF 6
ENDMDL
MODEL 3
REMARK VINA RESULT:      -5.5     20.635     23.501
REMARK  6 active torsions:
REMARK  status: ('A' for Active; 'I' for Inactive)
REMARK    1  A    between atoms: C_7  and  O_8 
REMARK    2  A    between atoms: C_10  and  O_11 
REMARK    3  A    between atoms: C_15  and  C_16 
REMARK    4  A    between atoms: C_16  and  O_17 
REMARK    5  A    between atoms: C_22  and  O_23 
REMARK    6  A    between atoms: C_22  and  C_25 
ROOT
HETATM    1  O   UNK N   1      49.926  56.361  53.142  0.00  0.00    -0.292 OA
HETATM    2  C   UNK N   1      51.042  56.029  53.519  0.00  0.00     0.191 C 
HETATM    3  C   UNK N   1      51.909  57.031  54.284  0.00  0.00     0.117 C 
HETATM    4  O   UNK N   1      52.281  56.524  55.566  0.00  0.00    -0.367 OA
HETATM    5  C   UNK N   1      51.234  55.842  56.256  0.00  0.00     0.134 C 
HETATM    6  C   UNK N   1      51.207  54.270  55.967  0.00  0.00     0.015 C 
HETATM    7  C   UNK N   1      52.012  53.934  54.647  0.00  0.00     0.165 C 
HETATM    8  C   UNK N   1      51.487  54.588  53.330  0.00  0.00     0.220 C 
HETATM    9  C   UNK N   1      51.867  53.486  57.188  0.00  0.00     0.007 C 
HETATM   10  C   UNK N   1      51.355  53.859  58.637  0.00  0.00    -0.033 C 
HETATM   11  C   UNK N   1      50.480  52.607  59.058  0.00  0.00     0.028 C 
HETATM   12  C   UNK N   1      51.356  51.459  58.482  0.00  0.00     0.009 C 
HETATM   13  C   UNK N   1      51.751  51.942  57.096  0.00  0.00     0.007 C 
HETATM   14  C   UNK N   1      50.626  55.241  58.642  0.00  0.00     0.012 C 
HETATM   15  C   UNK N   1      51.355  56.235  57.740  0.00  0.00     0.034 C 
HETATM   16  C   UNK N   1      52.608  54.005  59.580  0.00  0.00     0.016 C 
HETATM   17  C   UNK N   1      49.713  53.843  55.750  0.00  0.00     0.021 C 
HETATM   18  C   UNK N   1      51.194  58.393  54.462  0.00  0.00     0.054 C 
HETATM   19  C   UNK N   1      53.198  57.283  53.485  0.00  0.00     0.054 C 
ENDROOT
BRANCH  11  20
HETATM   20  C   UNK N   1      50.103  52.362  60.592  0.00  0.00     0.063 C 
HETATM   21  C   UNK N   1      49.348  53.534  61.334  0.00  0.00     0.048 C 
HETATM   22  C   UNK N   1      47.804  53.647  61.106  0.00  0.00    -0.035 C 
HETATM   23  C   UNK N   1      47.184  52.284  61.432  0.00  0.00     0.029 C 
HETATM   24  C   UNK N   1      47.090  54.490  62.175  0.00  0.00     0.012 C 
HETATM   25  C   UNK N   1      47.449  54.227  59.708  0.00  0.00     0.016 C 
HETATM   26  C   UNK N   1      45.659  52.531  61.577  0.00  0.00     0.065 C 
HETATM   27  C   UNK N   1      47.726  51.179  60.514  0.00  0.00     0.011 C 
HETATM   28  C   UNK N   1      45.623  54.012  62.116  0.00  0.00     0.039 C 
HETATM   29  C   UNK N   1      49.243  51.050  60.792  0.00  0.00     0.039 C 
BRANCH  20  30
HETATM   30  O   UNK N   1      51.316  52.195  61.298  0.00  0.00    -0.389 OA
HETATM   31  H   UNK N   1      51.133  51.848  62.210  0.00  0.00     0.210 HD
ENDBRANCH  20  30
BRANCH  26  32
HETATM   32  O   UNK N   1      45.108  52.467  60.278  0.00  0.00    -0.389 OA
HETATM   33  H   UNK N   1      45.830  52.613  59.613  0.00  0.00     0.210 HD
ENDBRANCH  26  32
BRANCH  26  34
HETATM   34  C   UNK N   1      44.925  51.476  62.493  0.00  0.00     0.012 C 
HETATM   35  C   UNK N   1      44.376  50.236  61.746  0.00  0.00     0.012 C 
HETATM   36  C   UNK N   1      45.835  50.974  63.632  0.00  0.00     0.012 C 
ENDBRANCH  26  34
ENDBRANCH  11  20
BRANCH   7  37
HETATM   37  O   UNK N   1      53.360  54.301  54.834  0.00  0.00    -0.392 OA
HETATM   38  H   UNK N   1      53.402  54.908  55.618  0.00  0.00     0.210 HD
ENDBRANCH   7  37
BRANCH   8  39
HETATM   39  O   UNK N   1      50.418  53.825  52.827  0.00  0.00    -0.385 OA
HETATM   40  H   UNK N   1      49.914  53.475  53.609  0.00  0.00     0.210 HD
ENDBRANCH   8  39
TORSDOF 6
ENDMDL
MODEL 4
REMARK VINA RESULT:      -5.5     18.777     21.938
REMARK  6 active torsions:
REMARK  status: ('A' for Active; 'I' for Inactive)
REMARK    1  A    between atoms: C_7  and  O_8 
REMARK    2  A    between atoms: C_10  and  O_11 
REMARK    3  A    between atoms: C_15  and  C_16 
REMARK    4  A    between atoms: C_16  and  O_17 
REMARK    5  A    between atoms: C_22  and  O_23 
REMARK    6  A    between atoms: C_22  and  C_25 
ROOT
HETATM    1  O   UNK N   1      45.355  48.957  62.357  0.00  0.00    -0.292 OA
HETATM    2  C   UNK N   1      45.211  49.895  63.129  0.00  0.00     0.191 C 
HETATM    3  C   UNK N   1      46.257  50.142  64.220  0.00  0.00     0.117 C 
HETATM    4  O   UNK N   1      46.817  51.451  64.115  0.00  0.00    -0.367 OA
HETATM    5  C   UNK N   1      47.095  51.868  62.778  0.00  0.00     0.134 C 
HETATM    6  C   UNK N   1      45.880  52.651  62.096  0.00  0.00     0.015 C 
HETATM    7  C   UNK N   1      44.529  52.358  62.864  0.00  0.00     0.165 C 
HETATM    8  C   UNK N   1      44.065  50.868  62.905  0.00  0.00     0.220 C 
HETATM    9  C   UNK N   1      46.165  54.220  62.130  0.00  0.00     0.007 C 
HETATM   10  C   UNK N   1      47.580  54.702  61.615  0.00  0.00    -0.033 C 
HETATM   11  C   UNK N   1      47.260  55.375  60.217  0.00  0.00     0.028 C 
HETATM   12  C   UNK N   1      45.931  56.102  60.566  0.00  0.00     0.009 C 
HETATM   13  C   UNK N   1      45.131  55.074  61.351  0.00  0.00     0.007 C 
HETATM   14  C   UNK N   1      48.606  53.522  61.593  0.00  0.00     0.012 C 
HETATM   15  C   UNK N   1      48.429  52.635  62.824  0.00  0.00     0.034 C 
HETATM   16  C   UNK N   1      48.138  55.766  62.632  0.00  0.00     0.016 C 
HETATM   17  C   UNK N   1      45.731  52.126  60.625  0.00  0.00     0.021 C 
HETATM   18  C   UNK N   1      47.396  49.094  64.172  0.00  0.00     0.054 C 
HETATM   19  C   UNK N   1      45.577  50.029  65.594  0.00  0.00     0.054 C 
ENDROOT
BRANCH  11  20
HETATM   20  C   UNK N   1      48.318  56.356  59.531  0.00  0.00     0.063 C 
HETATM   21  C   UNK N   1      49.790  55.809  59.361  0.00  0.00     0.048 C 
HETATM   22  C   UNK N   1      50.067  54.867  58.143  0.00  0.00    -0.035 C 
HETATM   23  C   UNK N   1      49.587  55.589  56.879  0.00  0.00     0.029 C 
HETATM   24  C   UNK N   1      51.559  54.747  57.791  0.00  0.00     0.012 C 
HETATM   25  C   UNK N   1      49.497  53.436  58.354  0.00  0.00     0.016 C 
HETATM   26  C   UNK N   1      50.217  54.824  55.684  0.00  0.00     0.065 C 
HETATM   27  C   UNK N   1      48.081  55.881  56.929  0.00  0.00     0.011 C 
HETATM   28  C   UNK N   1      51.563  54.300  56.314  0.00  0.00     0.039 C 
HETATM   29  C   UNK N   1      47.837  56.853  58.108  0.00  0.00     0.039 C 
BRANCH  20  30
HETATM   30  O   UNK N   1      48.438  57.491  60.366  0.00  0.00    -0.389 OA
HETATM   31  H   UNK N   1      47.703  58.131  60.178  0.00  0.00     0.210 HD
ENDBRANCH  20  30
BRANCH  26  32
HETATM   32  O   UNK N   1      49.357  53.743  55.390  0.00  0.00    -0.389 OA
HETATM   33  H   UNK N   1      48.422  54.074  55.353  0.00  0.00     0.210 HD
ENDBRANCH  26  32
BRANCH  26  34
HETATM   34  C   UNK N   1      50.392  55.703  54.385  0.00  0.00     0.012 C 
HETATM   35  C   UNK N   1      51.836  56.192  54.120  0.00  0.00     0.012 C 
HETATM   36  C   UNK N   1      49.906  54.963  53.123  0.00  0.00     0.012 C 
ENDBRANCH  26  34
ENDBRANCH  11  20
BRANCH   7  37
HETATM   37  O   UNK N   1      44.646  52.837  64.184  0.00  0.00    -0.392 OA
HETATM   38  H   UNK N   1      45.461  52.432  64.581  0.00  0.00     0.210 HD
ENDBRANCH   7  37
BRANCH   8  39
HETATM   39  O   UNK N   1      43.406  50.553  61.703  0.00  0.00    -0.385 OA
HETATM   40  H   UNK N   1      42.677  49.917  61.927  0.00  0.00     0.210 HD
ENDBRANCH   8  39
TORSDOF 6
ENDMDL
MODEL 5
REMARK VINA RESULT:      -5.3      4.675      9.762
REMARK  6 active torsions:
REMARK  status: ('A' for Active; 'I' for Inactive)
REMARK    1  A    between atoms: C_7  and  O_8 
REMARK    2  A    between atoms: C_10  and  O_11 
REMARK    3  A    between atoms: C_15  and  C_16 
REMARK    4  A    between atoms: C_16  and  O_17 
REMARK    5  A    between atoms: C_22  and  O_23 
REMARK    6  A    between atoms: C_22  and  C_25 
ROOT
HETATM    1  O   UNK N   1      27.591  35.453  55.682  0.00  0.00    -0.292 OA
HETATM    2  C   UNK N   1      27.319  36.281  54.823  0.00  0.00     0.191 C 
HETATM    3  C   UNK N   1      25.935  36.934  54.816  0.00  0.00     0.117 C 
HETATM    4  O   UNK N   1      26.030  38.355  54.914  0.00  0.00    -0.367 OA
HETATM    5  C   UNK N   1      27.013  38.817  55.842  0.00  0.00     0.134 C 
HETATM    6  C   UNK N   1      28.445  39.059  55.176  0.00  0.00     0.015 C 
HETATM    7  C   UNK N   1      28.556  38.287  53.801  0.00  0.00     0.165 C 
HETATM    8  C   UNK N   1      28.407  36.734  53.864  0.00  0.00     0.220 C 
HETATM    9  C   UNK N   1      28.661  40.617  54.913  0.00  0.00     0.007 C 
HETATM   10  C   UNK N   1      28.365  41.594  56.121  0.00  0.00    -0.033 C 
HETATM   11  C   UNK N   1      29.806  42.062  56.585  0.00  0.00     0.028 C 
HETATM   12  C   UNK N   1      30.493  42.230  55.201  0.00  0.00     0.009 C 
HETATM   13  C   UNK N   1      30.082  40.992  54.420  0.00  0.00     0.007 C 
HETATM   14  C   UNK N   1      27.484  40.898  57.209  0.00  0.00     0.012 C 
HETATM   15  C   UNK N   1      26.404  40.039  56.555  0.00  0.00     0.034 C 
HETATM   16  C   UNK N   1      27.532  42.813  55.576  0.00  0.00     0.016 C 
HETATM   17  C   UNK N   1      29.534  38.484  56.149  0.00  0.00     0.021 C 
HETATM   18  C   UNK N   1      25.042  36.403  55.964  0.00  0.00     0.054 C 
HETATM   19  C   UNK N   1      25.235  36.600  53.488  0.00  0.00     0.054 C 
ENDROOT
BRANCH  11  20
HETATM   20  C   UNK N   1      29.979  43.359  57.502  0.00  0.00     0.063 C 
HETATM   21  C   UNK N   1      29.562  43.217  59.019  0.00  0.00     0.048 C 
HETATM   22  C   UNK N   1      30.596  42.552  59.987  0.00  0.00    -0.035 C 
HETATM   23  C   UNK N   1      31.923  43.305  59.838  0.00  0.00     0.029 C 
HETATM   24  C   UNK N   1      30.323  42.852  61.470  0.00  0.00     0.012 C 
HETATM   25  C   UNK N   1      30.675  41.011  59.806  0.00  0.00     0.016 C 
HETATM   26  C   UNK N   1      32.788  42.893  61.059  0.00  0.00     0.065 C 
HETATM   27  C   UNK N   1      32.472  43.208  58.408  0.00  0.00     0.011 C 
HETATM   28  C   UNK N   1      31.687  42.631  62.157  0.00  0.00     0.039 C 
HETATM   29  C   UNK N   1      31.460  43.916  57.475  0.00  0.00     0.039 C 
BRANCH  20  30
HETATM   30  O   UNK N   1      29.132  44.359  56.975  0.00  0.00    -0.389 OA
HETATM   31  H   UNK N   1      29.469  45.258  57.226  0.00  0.00     0.210 HD
ENDBRANCH  20  30
BRANCH  26  32
HETATM   32  O   UNK N   1      33.435  41.686  60.714  0.00  0.00    -0.389 OA
HETATM   33  H   UNK N   1      34.066  41.438  61.439  0.00  0.00     0.210 HD
ENDBRANCH  26  32
BRANCH  26  34
HETATM   34  C   UNK N   1      33.879  43.961  61.457  0.00  0.00     0.012 C 
HETATM   35  C   UNK N   1      34.157  44.073  62.975  0.00  0.00     0.012 C 
HETATM   36  C   UNK N   1      35.224  43.697  60.751  0.00  0.00     0.012 C 
ENDBRANCH  26  34
ENDBRANCH  11  20
BRANCH   7  37
HETATM   37  O   UNK N   1      27.592  38.803  52.913  0.00  0.00    -0.392 OA
HETATM   38  H   UNK N   1      28.019  38.896  52.022  0.00  0.00     0.210 HD
ENDBRANCH   7  37
BRANCH   8  39
HETATM   39  O   UNK N   1      29.637  36.164  54.239  0.00  0.00    -0.385 OA
HETATM   40  H   UNK N   1      30.342  36.838  54.050  0.00  0.00     0.210 HD
ENDBRANCH   8  39
TORSDOF 6
ENDMDL
MODEL 6
REMARK VINA RESULT:      -5.3     20.102     23.174
REMARK  6 active torsions:
REMARK  status: ('A' for Active; 'I' for Inactive)
REMARK    1  A    between atoms: C_7  and  O_8 
REMARK    2  A    between atoms: C_10  and  O_11 
REMARK    3  A    between atoms: C_15  and  C_16 
REMARK    4  A    between atoms: C_16  and  O_17 
REMARK    5  A    between atoms: C_22  and  O_23 
REMARK    6  A    between atoms: C_22  and  C_25 
ROOT
HETATM    1  O   UNK N   1      44.650  50.781  61.098  0.00  0.00    -0.292 OA
HETATM    2  C   UNK N   1      45.558  50.758  61.917  0.00  0.00     0.191 C 
HETATM    3  C   UNK N   1      46.489  49.545  61.980  0.00  0.00     0.117 C 
HETATM    4  O   UNK N   1      47.851  49.923  61.782  0.00  0.00    -0.367 OA
HETATM    5  C   UNK N   1      48.048  50.899  60.757  0.00  0.00     0.134 C 
HETATM    6  C   UNK N   1      48.016  52.401  61.302  0.00  0.00     0.015 C 
HETATM    7  C   UNK N   1      47.306  52.465  62.715  0.00  0.00     0.165 C 
HETATM    8  C   UNK N   1      45.819  51.993  62.765  0.00  0.00     0.220 C 
HETATM    9  C   UNK N   1      49.504  52.955  61.446  0.00  0.00     0.007 C 
HETATM   10  C   UNK N   1      50.459  52.768  60.200  0.00  0.00    -0.033 C 
HETATM   11  C   UNK N   1      50.589  54.231  59.605  0.00  0.00     0.028 C 
HETATM   12  C   UNK N   1      50.678  55.051  60.923  0.00  0.00     0.009 C 
HETATM   13  C   UNK N   1      49.595  54.459  61.811  0.00  0.00     0.007 C 
HETATM   14  C   UNK N   1      49.912  51.675  59.225  0.00  0.00     0.012 C 
HETATM   15  C   UNK N   1      49.334  50.499  60.010  0.00  0.00     0.034 C 
HETATM   16  C   UNK N   1      51.853  52.252  60.720  0.00  0.00     0.016 C 
HETATM   17  C   UNK N   1      47.176  53.263  60.295  0.00  0.00     0.021 C 
HETATM   18  C   UNK N   1      46.101  48.469  60.936  0.00  0.00     0.054 C 
HETATM   19  C   UNK N   1      46.376  48.904  63.373  0.00  0.00     0.054 C 
ENDROOT
BRANCH  11  20
HETATM   20  C   UNK N   1      51.773  54.591  58.594  0.00  0.00     0.063 C 
HETATM   21  C   UNK N   1      51.891  53.704  57.293  0.00  0.00     0.048 C 
HETATM   22  C   UNK N   1      50.939  54.052  56.100  0.00  0.00    -0.035 C 
HETATM   23  C   UNK N   1      51.117  55.541  55.783  0.00  0.00     0.029 C 
HETATM   24  C   UNK N   1      51.406  53.470  54.756  0.00  0.00     0.012 C 
HETATM   25  C   UNK N   1      49.476  53.591  56.351  0.00  0.00     0.016 C 
HETATM   26  C   UNK N   1      50.479  55.760  54.385  0.00  0.00     0.065 C 
HETATM   27  C   UNK N   1      50.735  56.426  56.977  0.00  0.00     0.011 C 
HETATM   28  C   UNK N   1      50.722  54.362  53.699  0.00  0.00     0.039 C 
HETATM   29  C   UNK N   1      51.720  56.102  58.127  0.00  0.00     0.039 C 
BRANCH  20  30
HETATM   30  O   UNK N   1      52.989  54.396  59.288  0.00  0.00    -0.389 OA
HETATM   31  H   UNK N   1      53.743  54.776  58.766  0.00  0.00     0.210 HD
ENDBRANCH  20  30
BRANCH  26  32
HETATM   32  O   UNK N   1      49.098  55.973  54.594  0.00  0.00    -0.389 OA
HETATM   33  H   UNK N   1      48.962  56.887  54.955  0.00  0.00     0.210 HD
ENDBRANCH  26  32
BRANCH  26  34
HETATM   34  C   UNK N   1      51.070  56.995  53.600  0.00  0.00     0.012 C 
HETATM   35  C   UNK N   1      50.422  58.357  53.944  0.00  0.00     0.012 C 
HETATM   36  C   UNK N   1      52.592  57.131  53.808  0.00  0.00     0.012 C 
ENDBRANCH  26  34
ENDBRANCH  11  20
BRANCH   7  37
HETATM   37  O   UNK N   1      48.059  51.704  63.632  0.00  0.00    -0.392 OA
HETATM   38  H   UNK N   1      48.386  50.896  63.159  0.00  0.00     0.210 HD
ENDBRANCH   7  37
BRANCH   8  39
HETATM   39  O   UNK N   1      44.985  53.043  62.342  0.00  0.00    -0.385 OA
HETATM   40  H   UNK N   1      45.574  53.799  62.082  0.00  0.00     0.210 HD
ENDBRANCH   8  39
TORSDOF 6
ENDMDL
MODEL 7
REMARK VINA RESULT:      -5.1     20.129     23.024
REMARK  6 active torsions:
REMARK  status: ('A' for Active; 'I' for Inactive)
REMARK    1  A    between atoms: C_7  and  O_8 
REMARK    2  A    between atoms: C_10  and  O_11 
REMARK    3  A    between atoms: C_15  and  C_16 
REMARK    4  A    between atoms: C_16  and  O_17 
REMARK    5  A    between atoms: C_22  and  O_23 
REMARK    6  A    between atoms: C_22  and  C_25 
ROOT
HETATM    1  O   UNK N   1      51.671  53.513  53.577  0.00  0.00    -0.292 OA
HETATM    2  C   UNK N   1      51.986  54.421  54.334  0.00  0.00     0.191 C 
HETATM    3  C   UNK N   1      51.281  55.775  54.225  0.00  0.00     0.117 C 
HETATM    4  O   UNK N   1      50.659  56.137  55.458  0.00  0.00    -0.367 OA
HETATM    5  C   UNK N   1      49.998  55.060  56.123  0.00  0.00     0.134 C 
HETATM    6  C   UNK N   1      50.937  54.289  57.162  0.00  0.00     0.015 C 
HETATM    7  C   UNK N   1      52.461  54.580  56.855  0.00  0.00     0.165 C 
HETATM    8  C   UNK N   1      52.980  54.140  55.450  0.00  0.00     0.220 C 
HETATM    9  C   UNK N   1      50.607  54.770  58.646  0.00  0.00     0.007 C 
HETATM   10  C   UNK N   1      49.085  54.778  59.074  0.00  0.00    -0.033 C 
HETATM   11  C   UNK N   1      48.969  53.548  60.066  0.00  0.00     0.028 C 
HETATM   12  C   UNK N   1      50.310  53.696  60.837  0.00  0.00     0.009 C 
HETATM   13  C   UNK N   1      51.342  53.973  59.755  0.00  0.00     0.007 C 
HETATM   14  C   UNK N   1      48.146  54.747  57.825  0.00  0.00     0.012 C 
HETATM   15  C   UNK N   1      48.699  55.639  56.715  0.00  0.00     0.034 C 
HETATM   16  C   UNK N   1      48.792  56.130  59.826  0.00  0.00     0.016 C 
HETATM   17  C   UNK N   1      50.688  52.749  56.988  0.00  0.00     0.021 C 
HETATM   18  C   UNK N   1      50.221  55.781  53.097  0.00  0.00     0.054 C 
HETATM   19  C   UNK N   1      52.325  56.852  53.890  0.00  0.00     0.054 C 
ENDROOT
BRANCH  11  20
HETATM   20  C   UNK N   1      47.719  53.420  61.053  0.00  0.00     0.063 C 
HETATM   21  C   UNK N   1      46.684  52.269  60.745  0.00  0.00     0.048 C 
HETATM   22  C   UNK N   1      47.051  50.827  61.230  0.00  0.00    -0.035 C 
HETATM   23  C   UNK N   1      47.371  50.908  62.727  0.00  0.00     0.029 C 
HETATM   24  C   UNK N   1      45.841  49.881  61.301  0.00  0.00     0.012 C 
HETATM   25  C   UNK N   1      48.141  50.161  60.346  0.00  0.00     0.016 C 
HETATM   26  C   UNK N   1      47.344  49.447  63.250  0.00  0.00     0.065 C 
HETATM   27  C   UNK N   1      48.569  51.828  63.002  0.00  0.00     0.011 C 
HETATM   28  C   UNK N   1      46.276  48.786  62.298  0.00  0.00     0.039 C 
HETATM   29  C   UNK N   1      48.166  53.256  62.562  0.00  0.00     0.039 C 
BRANCH  20  30
HETATM   30  O   UNK N   1      46.982  54.622  60.950  0.00  0.00    -0.389 OA
HETATM   31  H   UNK N   1      46.904  54.892  59.998  0.00  0.00     0.210 HD
ENDBRANCH  20  30
BRANCH  26  32
HETATM   32  O   UNK N   1      48.624  48.902  63.008  0.00  0.00    -0.389 OA
HETATM   33  H   UNK N   1      48.748  48.100  63.579  0.00  0.00     0.210 HD
ENDBRANCH  26  32
BRANCH  26  34
HETATM   34  C   UNK N   1      47.022  49.326  64.790  0.00  0.00     0.012 C 
HETATM   35  C   UNK N   1      45.853  48.375  65.138  0.00  0.00     0.012 C 
HETATM   36  C   UNK N   1      48.254  48.874  65.599  0.00  0.00     0.012 C 
ENDBRANCH  26  34
ENDBRANCH  11  20
BRANCH   7  37
HETATM   37  O   UNK N   1      52.700  55.959  57.020  0.00  0.00    -0.392 OA
HETATM   38  H   UNK N   1      52.773  56.363  56.117  0.00  0.00     0.210 HD
ENDBRANCH   7  37
BRANCH   8  39
HETATM   39  O   UNK N   1      53.287  52.768  55.476  0.00  0.00    -0.385 OA
HETATM   40  H   UNK N   1      52.692  52.322  54.817  0.00  0.00     0.210 HD
ENDBRANCH   8  39
TORSDOF 6
ENDMDL
MODEL 8
REMARK VINA RESULT:      -5.1      2.700      8.844
REMARK  6 active torsions:
REMARK  status: ('A' for Active; 'I' for Inactive)
REMARK    1  A    between atoms: C_7  and  O_8 
REMARK    2  A    between atoms: C_10  and  O_11 
REMARK    3  A    between atoms: C_15  and  C_16 
REMARK    4  A    between atoms: C_16  and  O_17 
REMARK    5  A    between atoms: C_22  and  O_23 
REMARK    6  A    between atoms: C_22  and  C_25 
ROOT
HETATM    1  O   UNK N   1      33.919  43.728  58.478  0.00  0.00    -0.292 OA
HETATM    2  C   UNK N   1      33.000  42.945  58.678  0.00  0.00     0.191 C 
HETATM    3  C   UNK N   1      32.757  42.411  60.092  0.00  0.00     0.117 C 
HETATM    4  O   UNK N   1      31.436  42.714  60.542  0.00  0.00    -0.367 OA
HETATM    5  C   UNK N   1      30.987  44.028  60.207  0.00  0.00     0.134 C 
HETATM    6  C   UNK N   1      30.211  44.093  58.811  0.00  0.00     0.015 C 
HETATM    7  C   UNK N   1      30.544  42.823  57.931  0.00  0.00     0.165 C 
HETATM    8  C   UNK N   1      32.043  42.623  57.541  0.00  0.00     0.220 C 
HETATM    9  C   UNK N   1      28.639  44.144  59.071  0.00  0.00     0.007 C 
HETATM   10  C   UNK N   1      28.121  45.210  60.118  0.00  0.00    -0.033 C 
HETATM   11  C   UNK N   1      27.424  46.312  59.218  0.00  0.00     0.028 C 
HETATM   12  C   UNK N   1      26.729  45.402  58.167  0.00  0.00     0.009 C 
HETATM   13  C   UNK N   1      27.786  44.375  57.796  0.00  0.00     0.007 C 
HETATM   14  C   UNK N   1      29.281  45.707  61.041  0.00  0.00     0.012 C 
HETATM   15  C   UNK N   1      30.197  44.546  61.423  0.00  0.00     0.034 C 
HETATM   16  C   UNK N   1      27.068  44.509  61.055  0.00  0.00     0.016 C 
HETATM   17  C   UNK N   1      30.708  45.367  58.040  0.00  0.00     0.021 C 
HETATM   18  C   UNK N   1      33.783  42.976  61.104  0.00  0.00     0.054 C 
HETATM   19  C   UNK N   1      32.910  40.881  60.078  0.00  0.00     0.054 C 
ENDROOT
BRANCH  11  20
HETATM   20  C   UNK N   1      26.411  47.364  59.866  0.00  0.00     0.063 C 
HETATM   21  C   UNK N   1      26.882  48.082  61.190  0.00  0.00     0.048 C 
HETATM   22  C   UNK N   1      27.849  49.304  61.037  0.00  0.00    -0.035 C 
HETATM   23  C   UNK N   1      27.198  50.292  60.063  0.00  0.00     0.029 C 
HETATM   24  C   UNK N   1      27.898  50.203  62.284  0.00  0.00     0.012 C 
HETATM   25  C   UNK N   1      29.300  48.874  60.686  0.00  0.00     0.016 C 
HETATM   26  C   UNK N   1      27.967  51.629  60.233  0.00  0.00     0.065 C 
HETATM   27  C   UNK N   1      26.988  49.668  58.677  0.00  0.00     0.011 C 
HETATM   28  C   UNK N   1      28.395  51.562  61.749  0.00  0.00     0.039 C 
HETATM   29  C   UNK N   1      25.991  48.496  58.843  0.00  0.00     0.039 C 
BRANCH  20  30
HETATM   30  O   UNK N   1      25.244  46.652  60.224  0.00  0.00    -0.389 OA
HETATM   31  H   UNK N   1      25.485  45.746  60.551  0.00  0.00     0.210 HD
ENDBRANCH  20  30
BRANCH  26  32
HETATM   32  O   UNK N   1      29.104  51.557  59.397  0.00  0.00    -0.389 OA
HETATM   33  H   UNK N   1      29.354  52.474  59.111  0.00  0.00     0.210 HD
ENDBRANCH  26  32
BRANCH  26  34
HETATM   34  C   UNK N   1      27.126  52.904  59.839  0.00  0.00     0.012 C 
HETATM   35  C   UNK N   1      25.592  52.729  59.942  0.00  0.00     0.012 C 
HETATM   36  C   UNK N   1      27.517  54.133  60.683  0.00  0.00     0.012 C 
ENDBRANCH  26  34
ENDBRANCH  11  20
BRANCH   7  37
HETATM   37  O   UNK N   1      30.090  41.672  58.607  0.00  0.00    -0.392 OA
HETATM   38  H   UNK N   1      29.921  40.970  57.927  0.00  0.00     0.210 HD
ENDBRANCH   7  37
BRANCH   8  39
HETATM   39  O   UNK N   1      32.344  43.427  56.427  0.00  0.00    -0.385 OA
HETATM   40  H   UNK N   1      31.834  43.063  55.657  0.00  0.00     0.210 HD
ENDBRANCH   8  39
TORSDOF 6
ENDMDL
MODEL 9
REMARK VINA RESULT:      -5.0      1.490      2.182
REMARK  6 active torsions:
REMARK  status: ('A' for Active; 'I' for Inactive)
REMARK    1  A    between atoms: C_7  and  O_8 
REMARK    2  A    between atoms: C_10  and  O_11 
REMARK    3  A    between atoms: C_15  and  C_16 
REMARK    4  A    between atoms: C_16  and  O_17 
REMARK    5  A    between atoms: C_22  and  O_23 
REMARK    6  A    between atoms: C_22  and  C_25 
ROOT
HETATM    1  O   UNK N   1      28.446  50.401  56.156  0.00  0.00    -0.292 OA
HETATM    2  C   UNK N   1      28.355  50.411  57.376  0.00  0.00     0.191 C 
HETATM    3  C   UNK N   1      26.971  50.405  58.029  0.00  0.00     0.117 C 
HETATM    4  O   UNK N   1      26.812  49.286  58.901  0.00  0.00    -0.367 OA
HETATM    5  C   UNK N   1      27.347  48.062  58.393  0.00  0.00     0.134 C 
HETATM    6  C   UNK N   1      28.866  47.811  58.823  0.00  0.00     0.015 C 
HETATM    7  C   UNK N   1      29.544  49.164  59.282  0.00  0.00     0.165 C 
HETATM    8  C   UNK N   1      29.619  50.299  58.213  0.00  0.00     0.220 C 
HETATM    9  C   UNK N   1      28.918  46.770  60.029  0.00  0.00     0.007 C 
HETATM   10  C   UNK N   1      28.093  45.433  59.857  0.00  0.00    -0.033 C 
HETATM   11  C   UNK N   1      29.209  44.332  59.620  0.00  0.00     0.028 C 
HETATM   12  C   UNK N   1      30.284  44.817  60.632  0.00  0.00     0.009 C 
HETATM   13  C   UNK N   1      30.349  46.322  60.426  0.00  0.00     0.007 C 
HETATM   14  C   UNK N   1      27.015  45.573  58.733  0.00  0.00     0.012 C 
HETATM   15  C   UNK N   1      26.358  46.951  58.790  0.00  0.00     0.034 C 
HETATM   16  C   UNK N   1      27.315  45.157  61.197  0.00  0.00     0.016 C 
HETATM   17  C   UNK N   1      29.642  47.276  57.568  0.00  0.00     0.021 C 
HETATM   18  C   UNK N   1      25.837  50.395  56.975  0.00  0.00     0.054 C 
HETATM   19  C   UNK N   1      26.813  51.682  58.870  0.00  0.00     0.054 C 
ENDROOT
BRANCH  11  20
HETATM   20  C   UNK N   1      28.868  42.782  59.803  0.00  0.00     0.063 C 
HETATM   21  C   UNK N   1      27.617  42.231  59.012  0.00  0.00     0.048 C 
HETATM   22  C   UNK N   1      27.824  41.876  57.502  0.00  0.00    -0.035 C 
HETATM   23  C   UNK N   1      29.014  40.914  57.411  0.00  0.00     0.029 C 
HETATM   24  C   UNK N   1      26.733  40.951  56.938  0.00  0.00     0.012 C 
HETATM   25  C   UNK N   1      27.910  43.137  56.600  0.00  0.00     0.016 C 
HETATM   26  C   UNK N   1      28.949  40.286  55.993  0.00  0.00     0.065 C 
HETATM   27  C   UNK N   1      30.305  41.557  57.935  0.00  0.00     0.011 C 
HETATM   28  C   UNK N   1      27.397  40.286  55.714  0.00  0.00     0.039 C 
HETATM   29  C   UNK N   1      30.096  41.854  59.439  0.00  0.00     0.039 C 
BRANCH  20  30
HETATM   30  O   UNK N   1      28.563  42.580  61.168  0.00  0.00    -0.389 OA
HETATM   31  H   UNK N   1      28.670  43.430  61.670  0.00  0.00     0.210 HD
ENDBRANCH  20  30
BRANCH  26  32
HETATM   32  O   UNK N   1      29.606  41.180  55.118  0.00  0.00    -0.389 OA
HETATM   33  H   UNK N   1      30.425  40.745  54.767  0.00  0.00     0.210 HD
ENDBRANCH  26  32
BRANCH  26  34
HETATM   34  C   UNK N   1      29.640  38.871  55.889  0.00  0.00     0.012 C 
HETATM   35  C   UNK N   1      29.556  38.010  57.172  0.00  0.00     0.012 C 
HETATM   36  C   UNK N   1      29.067  38.038  54.725  0.00  0.00     0.012 C 
ENDBRANCH  26  34
ENDBRANCH  11  20
BRANCH   7  37
HETATM   37  O   UNK N   1      28.865  49.648  60.417  0.00  0.00    -0.392 OA
HETATM   38  H   UNK N   1      27.937  49.871  60.142  0.00  0.00     0.210 HD
ENDBRANCH   7  37
BRANCH   8  39
HETATM   39  O   UNK N   1      30.724  50.074  57.373  0.00  0.00    -0.385 OA
HETATM   40  H   UNK N   1      30.367  49.829  56.479  0.00  0.00     0.210 HD
ENDBRANCH   8  39
TORSDOF 6
ENDMDL
