MODEL 1
REMARK VINA RESULT:      -7.6      0.000      0.000
REMARK  6 active torsions:
REMARK  status: ('A' for Active; 'I' for Inactive)
REMARK    1  A    between atoms: C_2  and  O_3 
REMARK    2  A    between atoms: C_2  and  C_24 
REMARK    3  A    between atoms: O_3  and  C_4 
REMARK    4  A    between atoms: C_11  and  O_12 
REMARK    5  A    between atoms: C_24  and  C_25 
REMARK    6  A    between atoms: C_25  and  O_26 
ROOT
HETATM    1  C   UNK N   1      39.905  48.512  46.046  0.00  0.00     0.157 C 
HETATM    2  C   UNK N   1      39.209  47.647  47.120  0.00  0.00     0.003 C 
HETATM    3  C   UNK N   1      39.711  46.471  47.575  0.00  0.00    -0.011 C 
HETATM    4  C   UNK N   1      41.094  46.034  47.144  0.00  0.00     0.036 C 
HETATM    5  C   UNK N   1      41.167  46.435  45.628  0.00  0.00     0.148 C 
HETATM    6  O   UNK N   1      42.087  45.603  45.042  0.00  0.00    -0.341 OA
HETATM    7  C   UNK N   1      42.088  44.457  45.732  0.00  0.00     0.110 A 
HETATM    8  C   UNK N   1      42.626  43.241  45.312  0.00  0.00     0.099 A 
HETATM    9  C   UNK N   1      42.583  42.154  46.202  0.00  0.00     0.040 A 
HETATM   10  C   UNK N   1      42.057  42.324  47.499  0.00  0.00     0.012 A 
HETATM   11  C   UNK N   1      41.544  43.577  47.900  0.00  0.00    -0.020 A 
HETATM   12  C   UNK N   1      41.511  44.610  46.966  0.00  0.00     0.001 A 
HETATM   13  C   UNK N   1      41.152  43.840  49.323  0.00  0.00     0.308 C 
HETATM   14  N   UNK N   1      42.102  44.795  49.922  0.00  0.00     0.087 N 
HETATM   15  C   UNK N   1      41.882  46.221  49.624  0.00  0.00     0.271 C 
HETATM   16  C   UNK N   1      42.117  46.649  48.148  0.00  0.00     0.051 C 
HETATM   17  H   UNK N   1      43.094  44.521  49.725  0.00  0.00     0.316 HD
HETATM   18  C   UNK N   1      41.261  47.939  45.499  0.00  0.00     0.070 C 
ENDROOT
BRANCH   1  19
HETATM   19  O   UNK N   1      39.007  48.628  44.999  0.00  0.00    -0.312 OA
BRANCH  19  20
HETATM   20  C   UNK N   1      39.090  49.598  44.049  0.00  0.00     0.261 C 
HETATM   21  O   UNK N   1      39.469  50.724  44.348  0.00  0.00    -0.265 OA
BRANCH  20  22
HETATM   22  C   UNK N   1      38.650  49.288  42.643  0.00  0.00     0.142 C 
BRANCH  22  23
HETATM   23  C   UNK N   1      37.165  48.891  42.526  0.00  0.00     0.123 C 
HETATM   24  C   UNK N   1      36.254  49.981  43.122  0.00  0.00     0.040 C 
BRANCH  23  25
HETATM   25  O   UNK N   1      36.971  47.693  43.230  0.00  0.00    -0.395 OA
HETATM   26  H   UNK N   1      37.871  47.369  43.499  0.00  0.00     0.210 HD
ENDBRANCH  23  25
ENDBRANCH  22  23
ENDBRANCH  20  22
ENDBRANCH  19  20
ENDBRANCH   1  19
BRANCH   8  27
HETATM   27  O   UNK N   1      43.180  43.100  44.092  0.00  0.00    -0.358 OA
HETATM   28  H   UNK N   1      42.912  42.390  43.490  0.00  0.00     0.218 HD
ENDBRANCH   8  27
TORSDOF 6
ENDMDL
MODEL 2
REMARK VINA RESULT:      -6.2      6.795     11.759
REMARK  6 active torsions:
REMARK  status: ('A' for Active; 'I' for Inactive)
REMARK    1  A    between atoms: C_2  and  O_3 
REMARK    2  A    between atoms: C_2  and  C_24 
REMARK    3  A    between atoms: O_3  and  C_4 
REMARK    4  A    between atoms: C_11  and  O_12 
REMARK    5  A    between atoms: C_24  and  C_25 
REMARK    6  A    between atoms: C_25  and  O_26 
ROOT
HETATM    1  C   UNK N   1      34.503  50.370  43.653  0.00  0.00     0.157 C 
HETATM    2  C   UNK N   1      34.704  51.881  43.905  0.00  0.00     0.003 C 
HETATM    3  C   UNK N   1      33.732  52.808  43.710  0.00  0.00    -0.011 C 
HETATM    4  C   UNK N   1      32.327  52.357  43.379  0.00  0.00     0.036 C 
HETATM    5  C   UNK N   1      32.532  51.152  42.394  0.00  0.00     0.148 C 
HETATM    6  O   UNK N   1      31.396  51.067  41.630  0.00  0.00    -0.341 OA
HETATM    7  C   UNK N   1      30.876  52.296  41.546  0.00  0.00     0.110 A 
HETATM    8  C   UNK N   1      29.917  52.726  40.629  0.00  0.00     0.099 A 
HETATM    9  C   UNK N   1      29.447  54.047  40.732  0.00  0.00     0.040 A 
HETATM   10  C   UNK N   1      29.903  54.880  41.774  0.00  0.00     0.012 A 
HETATM   11  C   UNK N   1      30.855  54.402  42.701  0.00  0.00    -0.020 A 
HETATM   12  C   UNK N   1      31.376  53.123  42.518  0.00  0.00     0.001 A 
HETATM   13  C   UNK N   1      31.218  55.192  43.923  0.00  0.00     0.308 C 
HETATM   14  N   UNK N   1      30.704  54.503  45.120  0.00  0.00     0.087 N 
HETATM   15  C   UNK N   1      31.511  53.383  45.635  0.00  0.00     0.271 C 
HETATM   16  C   UNK N   1      31.578  52.122  44.727  0.00  0.00     0.051 C 
HETATM   17  H   UNK N   1      29.703  54.217  44.995  0.00  0.00     0.316 HD
HETATM   18  C   UNK N   1      33.074  49.959  43.148  0.00  0.00     0.070 C 
ENDROOT
BRANCH   1  19
HETATM   19  O   UNK N   1      35.441  50.006  42.702  0.00  0.00    -0.312 OA
BRANCH  19  20
HETATM   20  C   UNK N   1      36.449  49.126  42.948  0.00  0.00     0.261 C 
HETATM   21  O   UNK N   1      36.265  47.923  42.812  0.00  0.00    -0.265 OA
BRANCH  20  22
HETATM   22  C   UNK N   1      37.771  49.645  43.447  0.00  0.00     0.142 C 
BRANCH  22  23
HETATM   23  C   UNK N   1      38.803  49.903  42.331  0.00  0.00     0.123 C 
HETATM   24  C   UNK N   1      39.541  51.236  42.559  0.00  0.00     0.040 C 
BRANCH  23  25
HETATM   25  O   UNK N   1      38.124  49.957  41.104  0.00  0.00    -0.395 OA
HETATM   26  H   UNK N   1      37.986  50.918  40.894  0.00  0.00     0.210 HD
ENDBRANCH  23  25
ENDBRANCH  22  23
ENDBRANCH  20  22
ENDBRANCH  19  20
ENDBRANCH   1  19
BRANCH   8  27
HETATM   27  O   UNK N   1      29.443  51.907  39.670  0.00  0.00    -0.358 OA
HETATM   28  H   UNK N   1      28.672  52.144  39.133  0.00  0.00     0.218 HD
ENDBRANCH   8  27
TORSDOF 6
ENDMDL
MODEL 3
REMARK VINA RESULT:      -5.8     10.691     14.409
REMARK  6 active torsions:
REMARK  status: ('A' for Active; 'I' for Inactive)
REMARK    1  A    between atoms: C_2  and  O_3 
REMARK    2  A    between atoms: C_2  and  C_24 
REMARK    3  A    between atoms: O_3  and  C_4 
REMARK    4  A    between atoms: C_11  and  O_12 
REMARK    5  A    between atoms: C_24  and  C_25 
REMARK    6  A    between atoms: C_25  and  O_26 
ROOT
HETATM    1  C   UNK N   1      28.196  52.731  38.972  0.00  0.00     0.157 C 
HETATM    2  C   UNK N   1      27.729  53.572  40.180  0.00  0.00     0.003 C 
HETATM    3  C   UNK N   1      28.528  53.876  41.234  0.00  0.00    -0.011 C 
HETATM    4  C   UNK N   1      29.998  53.521  41.183  0.00  0.00     0.036 C 
HETATM    5  C   UNK N   1      30.028  52.108  40.502  0.00  0.00     0.148 C 
HETATM    6  O   UNK N   1      31.178  51.489  40.921  0.00  0.00    -0.341 OA
HETATM    7  C   UNK N   1      31.478  51.978  42.129  0.00  0.00     0.110 A 
HETATM    8  C   UNK N   1      32.367  51.420  43.048  0.00  0.00     0.099 A 
HETATM    9  C   UNK N   1      32.596  52.111  44.251  0.00  0.00     0.040 A 
HETATM   10  C   UNK N   1      31.979  53.357  44.479  0.00  0.00     0.012 A 
HETATM   11  C   UNK N   1      31.105  53.904  43.515  0.00  0.00    -0.020 A 
HETATM   12  C   UNK N   1      30.820  53.155  42.376  0.00  0.00     0.001 A 
HETATM   13  C   UNK N   1      30.582  55.305  43.641  0.00  0.00     0.308 C 
HETATM   14  N   UNK N   1      31.182  56.146  42.589  0.00  0.00     0.087 N 
HETATM   15  C   UNK N   1      30.572  56.066  41.251  0.00  0.00     0.271 C 
HETATM   16  C   UNK N   1      30.745  54.711  40.507  0.00  0.00     0.051 C 
HETATM   17  H   UNK N   1      32.220  56.008  42.536  0.00  0.00     0.316 HD
HETATM   18  C   UNK N   1      29.686  52.237  39.034  0.00  0.00     0.070 C 
ENDROOT
BRANCH   1  19
HETATM   19  O   UNK N   1      27.357  51.630  38.917  0.00  0.00    -0.312 OA
BRANCH  19  20
HETATM   20  C   UNK N   1      26.116  51.666  38.360  0.00  0.00     0.261 C 
HETATM   21  O   UNK N   1      25.958  52.114  37.231  0.00  0.00    -0.265 OA
BRANCH  20  22
HETATM   22  C   UNK N   1      24.934  51.206  39.172  0.00  0.00     0.142 C 
BRANCH  22  23
HETATM   23  C   UNK N   1      25.310  50.322  40.377  0.00  0.00     0.123 C 
HETATM   24  C   UNK N   1      24.137  49.405  40.775  0.00  0.00     0.040 C 
BRANCH  23  25
HETATM   25  O   UNK N   1      25.627  51.158  41.458  0.00  0.00    -0.395 OA
HETATM   26  H   UNK N   1      25.991  51.999  41.073  0.00  0.00     0.210 HD
ENDBRANCH  23  25
ENDBRANCH  22  23
ENDBRANCH  20  22
ENDBRANCH  19  20
ENDBRANCH   1  19
BRANCH   8  27
HETATM   27  O   UNK N   1      32.998  50.256  42.800  0.00  0.00    -0.358 OA
HETATM   28  H   UNK N   1      32.863  49.771  41.972  0.00  0.00     0.218 HD
ENDBRANCH   8  27
TORSDOF 6
ENDMDL
MODEL 4
REMARK VINA RESULT:      -5.8     11.963     15.978
REMARK  6 active torsions:
REMARK  status: ('A' for Active; 'I' for Inactive)
REMARK    1  A    between atoms: C_2  and  O_3 
REMARK    2  A    between atoms: C_2  and  C_24 
REMARK    3  A    between atoms: O_3  and  C_4 
REMARK    4  A    between atoms: C_11  and  O_12 
REMARK    5  A    between atoms: C_24  and  C_25 
REMARK    6  A    between atoms: C_25  and  O_26 
ROOT
HETATM    1  C   UNK N   1      31.036  54.248  42.279  0.00  0.00     0.157 C 
HETATM    2  C   UNK N   1      30.916  52.980  41.404  0.00  0.00     0.003 C 
HETATM    3  C   UNK N   1      29.943  52.802  40.475  0.00  0.00    -0.011 C 
HETATM    4  C   UNK N   1      29.008  53.944  40.145  0.00  0.00     0.036 C 
HETATM    5  C   UNK N   1      28.713  54.613  41.535  0.00  0.00     0.148 C 
HETATM    6  O   UNK N   1      27.498  55.239  41.424  0.00  0.00    -0.341 OA
HETATM    7  C   UNK N   1      26.785  54.571  40.511  0.00  0.00     0.110 A 
HETATM    8  C   UNK N   1      25.407  54.661  40.312  0.00  0.00     0.099 A 
HETATM    9  C   UNK N   1      24.840  53.920  39.260  0.00  0.00     0.040 A 
HETATM   10  C   UNK N   1      25.664  53.158  38.408  0.00  0.00     0.012 A 
HETATM   11  C   UNK N   1      27.059  53.110  38.624  0.00  0.00    -0.020 A 
HETATM   12  C   UNK N   1      27.582  53.775  39.730  0.00  0.00     0.001 A 
HETATM   13  C   UNK N   1      27.980  52.465  37.632  0.00  0.00     0.308 C 
HETATM   14  N   UNK N   1      28.797  53.504  36.978  0.00  0.00     0.087 N 
HETATM   15  C   UNK N   1      29.975  53.983  37.722  0.00  0.00     0.271 C 
HETATM   16  C   UNK N   1      29.676  54.790  39.018  0.00  0.00     0.051 C 
HETATM   17  H   UNK N   1      28.207  54.307  36.655  0.00  0.00     0.316 HD
HETATM   18  C   UNK N   1      29.943  55.346  42.023  0.00  0.00     0.070 C 
ENDROOT
BRANCH   1  19
HETATM   19  O   UNK N   1      30.951  53.822  43.594  0.00  0.00    -0.312 OA
BRANCH  19  20
HETATM   20  C   UNK N   1      32.018  53.786  44.436  0.00  0.00     0.261 C 
HETATM   21  O   UNK N   1      32.633  52.740  44.610  0.00  0.00    -0.265 OA
BRANCH  20  22
HETATM   22  C   UNK N   1      32.395  55.029  45.198  0.00  0.00     0.142 C 
BRANCH  22  23
HETATM   23  C   UNK N   1      33.915  55.277  45.277  0.00  0.00     0.123 C 
HETATM   24  C   UNK N   1      34.216  56.680  45.838  0.00  0.00     0.040 C 
BRANCH  23  25
HETATM   25  O   UNK N   1      34.447  55.175  43.982  0.00  0.00    -0.395 OA
HETATM   26  H   UNK N   1      35.180  54.505  44.025  0.00  0.00     0.210 HD
ENDBRANCH  23  25
ENDBRANCH  22  23
ENDBRANCH  20  22
ENDBRANCH  19  20
ENDBRANCH   1  19
BRANCH   8  27
HETATM   27  O   UNK N   1      24.632  55.437  41.094  0.00  0.00    -0.358 OA
HETATM   28  H   UNK N   1      24.311  55.132  41.955  0.00  0.00     0.218 HD
ENDBRANCH   8  27
TORSDOF 6
ENDMDL
MODEL 5
REMARK VINA RESULT:      -5.8     10.803     15.718
REMARK  6 active torsions:
REMARK  status: ('A' for Active; 'I' for Inactive)
REMARK    1  A    between atoms: C_2  and  O_3 
REMARK    2  A    between atoms: C_2  and  C_24 
REMARK    3  A    between atoms: O_3  and  C_4 
REMARK    4  A    between atoms: C_11  and  O_12 
REMARK    5  A    between atoms: C_24  and  C_25 
REMARK    6  A    between atoms: C_25  and  O_26 
ROOT
HETATM    1  C   UNK N   1      30.807  55.638  42.276  0.00  0.00     0.157 C 
HETATM    2  C   UNK N   1      31.282  56.017  40.856  0.00  0.00     0.003 C 
HETATM    3  C   UNK N   1      30.604  55.688  39.727  0.00  0.00    -0.011 C 
HETATM    4  C   UNK N   1      29.234  55.056  39.837  0.00  0.00     0.036 C 
HETATM    5  C   UNK N   1      29.367  54.060  41.044  0.00  0.00     0.148 C 
HETATM    6  O   UNK N   1      28.425  53.080  40.855  0.00  0.00    -0.341 OA
HETATM    7  C   UNK N   1      28.221  52.969  39.538  0.00  0.00     0.110 A 
HETATM    8  C   UNK N   1      27.595  51.907  38.886  0.00  0.00     0.099 A 
HETATM    9  C   UNK N   1      27.421  51.994  37.494  0.00  0.00     0.040 A 
HETATM   10  C   UNK N   1      27.823  53.154  36.803  0.00  0.00     0.012 A 
HETATM   11  C   UNK N   1      28.430  54.222  37.499  0.00  0.00    -0.020 A 
HETATM   12  C   UNK N   1      28.679  54.070  38.861  0.00  0.00     0.001 A 
HETATM   13  C   UNK N   1      28.697  55.538  36.831  0.00  0.00     0.308 C 
HETATM   14  N   UNK N   1      27.803  56.564  37.399  0.00  0.00     0.087 N 
HETATM   15  C   UNK N   1      28.215  57.161  38.681  0.00  0.00     0.271 C 
HETATM   16  C   UNK N   1      28.188  56.210  39.912  0.00  0.00     0.051 C 
HETATM   17  H   UNK N   1      26.813  56.225  37.445  0.00  0.00     0.316 HD
HETATM   18  C   UNK N   1      29.460  54.833  42.340  0.00  0.00     0.070 C 
ENDROOT
BRANCH   1  19
HETATM   19  O   UNK N   1      31.818  54.874  42.834  0.00  0.00    -0.312 OA
BRANCH  19  20
HETATM   20  C   UNK N   1      32.055  54.814  44.172  0.00  0.00     0.261 C 
HETATM   21  O   UNK N   1      32.707  55.692  44.724  0.00  0.00    -0.265 OA
BRANCH  20  22
HETATM   22  C   UNK N   1      31.562  53.624  44.952  0.00  0.00     0.142 C 
BRANCH  22  23
HETATM   23  C   UNK N   1      32.168  52.282  44.495  0.00  0.00     0.123 C 
HETATM   24  C   UNK N   1      33.690  52.256  44.734  0.00  0.00     0.040 C 
BRANCH  23  25
HETATM   25  O   UNK N   1      31.916  52.127  43.123  0.00  0.00    -0.395 OA
HETATM   26  H   UNK N   1      31.051  51.644  43.043  0.00  0.00     0.210 HD
ENDBRANCH  23  25
ENDBRANCH  22  23
ENDBRANCH  20  22
ENDBRANCH  19  20
ENDBRANCH   1  19
BRANCH   8  27
HETATM   27  O   UNK N   1      27.161  50.825  39.561  0.00  0.00    -0.358 OA
HETATM   28  H   UNK N   1      27.211  49.935  39.182  0.00  0.00     0.218 HD
ENDBRANCH   8  27
TORSDOF 6
ENDMDL
MODEL 6
REMARK VINA RESULT:      -5.8     12.170     16.272
REMARK  6 active torsions:
REMARK  status: ('A' for Active; 'I' for Inactive)
REMARK    1  A    between atoms: C_2  and  O_3 
REMARK    2  A    between atoms: C_2  and  C_24 
REMARK    3  A    between atoms: O_3  and  C_4 
REMARK    4  A    between atoms: C_11  and  O_12 
REMARK    5  A    between atoms: C_24  and  C_25 
REMARK    6  A    between atoms: C_25  and  O_26 
ROOT
HETATM    1  C   UNK N   1      31.010  55.417  42.740  0.00  0.00     0.157 C 
HETATM    2  C   UNK N   1      31.354  55.775  41.278  0.00  0.00     0.003 C 
HETATM    3  C   UNK N   1      30.433  55.822  40.282  0.00  0.00    -0.011 C 
HETATM    4  C   UNK N   1      28.965  55.672  40.616  0.00  0.00     0.036 C 
HETATM    5  C   UNK N   1      28.935  54.558  41.722  0.00  0.00     0.148 C 
HETATM    6  O   UNK N   1      27.694  53.975  41.663  0.00  0.00    -0.341 OA
HETATM    7  C   UNK N   1      27.257  54.089  40.405  0.00  0.00     0.110 A 
HETATM    8  C   UNK N   1      26.206  53.376  39.828  0.00  0.00     0.099 A 
HETATM    9  C   UNK N   1      25.852  53.675  38.501  0.00  0.00     0.040 A 
HETATM   10  C   UNK N   1      26.516  54.707  37.808  0.00  0.00     0.012 A 
HETATM   11  C   UNK N   1      27.559  55.426  38.432  0.00  0.00    -0.020 A 
HETATM   12  C   UNK N   1      27.954  55.045  39.712  0.00  0.00     0.001 A 
HETATM   13  C   UNK N   1      28.156  56.645  37.795  0.00  0.00     0.308 C 
HETATM   14  N   UNK N   1      27.777  57.838  38.575  0.00  0.00     0.087 N 
HETATM   15  C   UNK N   1      28.569  58.114  39.786  0.00  0.00     0.271 C 
HETATM   16  C   UNK N   1      28.411  57.091  40.947  0.00  0.00     0.051 C 
HETATM   17  H   UNK N   1      26.751  57.844  38.790  0.00  0.00     0.316 HD
HETATM   18  C   UNK N   1      29.496  55.103  43.016  0.00  0.00     0.070 C 
ENDROOT
BRANCH   1  19
HETATM   19  O   UNK N   1      31.768  54.302  43.056  0.00  0.00    -0.312 OA
BRANCH  19  20
HETATM   20  C   UNK N   1      32.099  53.961  44.330  0.00  0.00     0.261 C 
HETATM   21  O   UNK N   1      32.009  52.798  44.703  0.00  0.00    -0.265 OA
BRANCH  20  22
HETATM   22  C   UNK N   1      32.518  55.041  45.293  0.00  0.00     0.142 C 
BRANCH  22  23
HETATM   23  C   UNK N   1      34.028  55.350  45.267  0.00  0.00     0.123 C 
HETATM   24  C   UNK N   1      34.313  56.755  45.832  0.00  0.00     0.040 C 
BRANCH  23  25
HETATM   25  O   UNK N   1      34.469  55.291  43.936  0.00  0.00    -0.395 OA
HETATM   26  H   UNK N   1      33.795  55.773  43.389  0.00  0.00     0.210 HD
ENDBRANCH  23  25
ENDBRANCH  22  23
ENDBRANCH  20  22
ENDBRANCH  19  20
ENDBRANCH   1  19
BRANCH   8  27
HETATM   27  O   UNK N   1      25.536  52.430  40.515  0.00  0.00    -0.358 OA
HETATM   28  H   UNK N   1      25.132  52.616  41.375  0.00  0.00     0.218 HD
ENDBRANCH   8  27
TORSDOF 6
ENDMDL
MODEL 7
REMARK VINA RESULT:      -5.6      2.328      3.454
REMARK  6 active torsions:
REMARK  status: ('A' for Active; 'I' for Inactive)
REMARK    1  A    between atoms: C_2  and  O_3 
REMARK    2  A    between atoms: C_2  and  C_24 
REMARK    3  A    between atoms: O_3  and  C_4 
REMARK    4  A    between atoms: C_11  and  O_12 
REMARK    5  A    between atoms: C_24  and  C_25 
REMARK    6  A    between atoms: C_25  and  O_26 
ROOT
HETATM    1  C   UNK N   1      39.518  47.724  45.717  0.00  0.00     0.157 C 
HETATM    2  C   UNK N   1      40.968  47.258  45.462  0.00  0.00     0.003 C 
HETATM    3  C   UNK N   1      41.498  46.131  46.002  0.00  0.00    -0.011 C 
HETATM    4  C   UNK N   1      40.606  45.181  46.770  0.00  0.00     0.036 C 
HETATM    5  C   UNK N   1      39.656  46.125  47.590  0.00  0.00     0.148 C 
HETATM    6  O   UNK N   1      39.241  45.414  48.687  0.00  0.00    -0.341 OA
HETATM    7  C   UNK N   1      40.203  44.532  48.980  0.00  0.00     0.110 A 
HETATM    8  C   UNK N   1      40.346  43.834  50.179  0.00  0.00     0.099 A 
HETATM    9  C   UNK N   1      41.393  42.902  50.283  0.00  0.00     0.040 A 
HETATM   10  C   UNK N   1      42.230  42.654  49.177  0.00  0.00     0.012 A 
HETATM   11  C   UNK N   1      42.040  43.361  47.969  0.00  0.00    -0.020 A 
HETATM   12  C   UNK N   1      41.058  44.347  47.925  0.00  0.00     0.001 A 
HETATM   13  C   UNK N   1      42.787  42.990  46.722  0.00  0.00     0.308 C 
HETATM   14  N   UNK N   1      41.848  42.411  45.745  0.00  0.00     0.087 N 
HETATM   15  C   UNK N   1      41.049  43.362  44.953  0.00  0.00     0.271 C 
HETATM   16  C   UNK N   1      39.990  44.181  45.744  0.00  0.00     0.051 C 
HETATM   17  H   UNK N   1      41.235  41.685  46.188  0.00  0.00     0.316 HD
HETATM   18  C   UNK N   1      38.671  46.796  46.659  0.00  0.00     0.070 C 
ENDROOT
BRANCH   1  19
HETATM   19  O   UNK N   1      39.608  48.983  46.286  0.00  0.00    -0.312 OA
BRANCH  19  20
HETATM   20  C   UNK N   1      39.129  50.108  45.689  0.00  0.00     0.261 C 
HETATM   21  O   UNK N   1      38.227  50.749  46.214  0.00  0.00    -0.265 OA
BRANCH  20  22
HETATM   22  C   UNK N   1      39.679  50.517  44.348  0.00  0.00     0.142 C 
BRANCH  22  23
HETATM   23  C   UNK N   1      38.960  49.861  43.152  0.00  0.00     0.123 C 
HETATM   24  C   UNK N   1      39.166  50.685  41.867  0.00  0.00     0.040 C 
BRANCH  23  25
HETATM   25  O   UNK N   1      37.589  49.795  43.442  0.00  0.00    -0.395 OA
HETATM   26  H   UNK N   1      37.402  50.508  44.108  0.00  0.00     0.210 HD
ENDBRANCH  23  25
ENDBRANCH  22  23
ENDBRANCH  20  22
ENDBRANCH  19  20
ENDBRANCH   1  19
BRANCH   8  27
HETATM   27  O   UNK N   1      39.507  44.034  51.214  0.00  0.00    -0.358 OA
HETATM   28  H   UNK N   1      39.420  43.389  51.931  0.00  0.00     0.218 HD
ENDBRANCH   8  27
TORSDOF 6
ENDMDL
MODEL 8
REMARK VINA RESULT:      -5.5     14.839     17.272
REMARK  6 active torsions:
REMARK  status: ('A' for Active; 'I' for Inactive)
REMARK    1  A    between atoms: C_2  and  O_3 
REMARK    2  A    between atoms: C_2  and  C_24 
REMARK    3  A    between atoms: O_3  and  C_4 
REMARK    4  A    between atoms: C_11  and  O_12 
REMARK    5  A    between atoms: C_24  and  C_25 
REMARK    6  A    between atoms: C_25  and  O_26 
ROOT
HETATM    1  C   UNK N   1      34.575  43.863  61.891  0.00  0.00     0.157 C 
HETATM    2  C   UNK N   1      33.138  44.255  62.299  0.00  0.00     0.003 C 
HETATM    3  C   UNK N   1      32.037  43.919  61.580  0.00  0.00    -0.011 C 
HETATM    4  C   UNK N   1      32.174  42.983  60.399  0.00  0.00     0.036 C 
HETATM    5  C   UNK N   1      33.510  43.431  59.708  0.00  0.00     0.148 C 
HETATM    6  O   UNK N   1      33.418  43.063  58.390  0.00  0.00    -0.341 OA
HETATM    7  C   UNK N   1      32.121  43.066  58.063  0.00  0.00     0.110 A 
HETATM    8  C   UNK N   1      31.595  43.062  56.771  0.00  0.00     0.099 A 
HETATM    9  C   UNK N   1      30.198  43.009  56.625  0.00  0.00     0.040 A 
HETATM   10  C   UNK N   1      29.372  42.906  57.762  0.00  0.00     0.012 A 
HETATM   11  C   UNK N   1      29.940  42.887  59.054  0.00  0.00    -0.020 A 
HETATM   12  C   UNK N   1      31.320  43.039  59.175  0.00  0.00     0.001 A 
HETATM   13  C   UNK N   1      29.110  42.593  60.268  0.00  0.00     0.308 C 
HETATM   14  N   UNK N   1      29.493  41.278  60.814  0.00  0.00     0.087 N 
HETATM   15  C   UNK N   1      30.698  41.241  61.661  0.00  0.00     0.271 C 
HETATM   16  C   UNK N   1      32.045  41.525  60.937  0.00  0.00     0.051 C 
HETATM   17  H   UNK N   1      29.543  40.551  60.060  0.00  0.00     0.316 HD
HETATM   18  C   UNK N   1      34.691  43.031  60.563  0.00  0.00     0.070 C 
ENDROOT
BRANCH   1  19
HETATM   19  O   UNK N   1      35.275  45.048  61.744  0.00  0.00    -0.312 OA
BRANCH  19  20
HETATM   20  C   UNK N   1      36.487  45.275  62.318  0.00  0.00     0.261 C 
HETATM   21  O   UNK N   1      37.436  44.542  62.067  0.00  0.00    -0.265 OA
BRANCH  20  22
HETATM   22  C   UNK N   1      36.630  46.397  63.312  0.00  0.00     0.142 C 
BRANCH  22  23
HETATM   23  C   UNK N   1      36.818  47.784  62.665  0.00  0.00     0.123 C 
HETATM   24  C   UNK N   1      35.577  48.669  62.891  0.00  0.00     0.040 C 
BRANCH  23  25
HETATM   25  O   UNK N   1      37.013  47.607  61.287  0.00  0.00    -0.395 OA
HETATM   26  H   UNK N   1      37.818  48.134  61.041  0.00  0.00     0.210 HD
ENDBRANCH  23  25
ENDBRANCH  22  23
ENDBRANCH  20  22
ENDBRANCH  19  20
ENDBRANCH   1  19
BRANCH   8  27
HETATM   27  O   UNK N   1      32.393  43.102  55.686  0.00  0.00    -0.358 OA
HETATM   28  H   UNK N   1      32.037  43.255  54.798  0.00  0.00     0.218 HD
ENDBRANCH   8  27
TORSDOF 6
ENDMDL
MODEL 9
REMARK VINA RESULT:      -5.4     15.017     16.660
REMARK  6 active torsions:
REMARK  status: ('A' for Active; 'I' for Inactive)
REMARK    1  A    between atoms: C_2  and  O_3 
REMARK    2  A    between atoms: C_2  and  C_24 
REMARK    3  A    between atoms: O_3  and  C_4 
REMARK    4  A    between atoms: C_11  and  O_12 
REMARK    5  A    between atoms: C_24  and  C_25 
REMARK    6  A    between atoms: C_25  and  O_26 
ROOT
HETATM    1  C   UNK N   1      29.319  48.022  58.162  0.00  0.00     0.157 C 
HETATM    2  C   UNK N   1      30.417  47.324  57.330  0.00  0.00     0.003 C 
HETATM    3  C   UNK N   1      30.980  46.138  57.677  0.00  0.00    -0.011 C 
HETATM    4  C   UNK N   1      30.417  45.359  58.845  0.00  0.00     0.036 C 
HETATM    5  C   UNK N   1      30.080  46.460  59.913  0.00  0.00     0.148 C 
HETATM    6  O   UNK N   1      30.119  45.847  61.140  0.00  0.00    -0.341 OA
HETATM    7  C   UNK N   1      30.982  44.830  61.052  0.00  0.00     0.110 A 
HETATM    8  C   UNK N   1      31.560  44.143  62.119  0.00  0.00     0.099 A 
HETATM    9  C   UNK N   1      32.405  43.058  61.829  0.00  0.00     0.040 A 
HETATM   10  C   UNK N   1      32.606  42.656  60.493  0.00  0.00     0.012 A 
HETATM   11  C   UNK N   1      31.983  43.358  59.438  0.00  0.00    -0.020 A 
HETATM   12  C   UNK N   1      31.229  44.488  59.748  0.00  0.00     0.001 A 
HETATM   13  C   UNK N   1      32.024  42.847  58.029  0.00  0.00     0.308 C 
HETATM   14  N   UNK N   1      30.675  42.405  57.631  0.00  0.00     0.087 N 
HETATM   15  C   UNK N   1      29.738  43.455  57.196  0.00  0.00     0.271 C 
HETATM   16  C   UNK N   1      29.275  44.450  58.299  0.00  0.00     0.051 C 
HETATM   17  H   UNK N   1      30.240  41.797  58.366  0.00  0.00     0.316 HD
HETATM   18  C   UNK N   1      28.878  47.260  59.463  0.00  0.00     0.070 C 
ENDROOT
BRANCH   1  19
HETATM   19  O   UNK N   1      29.825  49.262  58.513  0.00  0.00    -0.312 OA
BRANCH  19  20
HETATM   20  C   UNK N   1      29.307  50.434  58.061  0.00  0.00     0.261 C 
HETATM   21  O   UNK N   1      28.977  51.310  58.851  0.00  0.00    -0.265 OA
BRANCH  20  22
HETATM   22  C   UNK N   1      29.085  50.617  56.582  0.00  0.00     0.142 C 
BRANCH  22  23
HETATM   23  C   UNK N   1      30.328  51.120  55.822  0.00  0.00     0.123 C 
HETATM   24  C   UNK N   1      30.215  50.810  54.316  0.00  0.00     0.040 C 
BRANCH  23  25
HETATM   25  O   UNK N   1      31.458  50.471  56.342  0.00  0.00    -0.395 OA
HETATM   26  H   UNK N   1      31.195  50.102  57.226  0.00  0.00     0.210 HD
ENDBRANCH  23  25
ENDBRANCH  22  23
ENDBRANCH  20  22
ENDBRANCH  19  20
ENDBRANCH   1  19
BRANCH   8  27
HETATM   27  O   UNK N   1      31.319  44.496  63.397  0.00  0.00    -0.358 OA
HETATM   28  H   UNK N   1      30.418  44.571  63.742  0.00  0.00     0.218 HD
ENDBRANCH   8  27
TORSDOF 6
ENDMDL
