MODEL 1
REMARK VINA RESULT:      -6.2      0.000      0.000
REMARK  12 active torsions:
REMARK  status: ('A' for Active; 'I' for Inactive)
REMARK    1  A    between atoms: C_2  and  O_3 
REMARK    2  A    between atoms: C_2  and  C_5 
REMARK    3  A    between atoms: C_8  and  O_9 
REMARK    4  A    between atoms: O_9  and  C_10 
REMARK    5  A    between atoms: C_12  and  C_22 
REMARK    6  A    between atoms: C_13  and  O_14 
REMARK    7  A    between atoms: C_16  and  O_17 
REMARK    8  A    between atoms: C_19  and  O_20 
REMARK    9  A    between atoms: C_22  and  O_23 
REMARK   10  A    between atoms: C_26  and  C_27 
REMARK   11  A    between atoms: C_27  and  C_28 
REMARK   12  A    between atoms: C_28  and  O_30 
ROOT
HETATM    1  C   UNK N   1      41.686  44.783  46.196  0.00  0.00     0.048 C 
HETATM    2  C   UNK N   1      41.552  45.533  45.070  0.00  0.00     0.152 C 
HETATM    3  O   UNK N   1      40.875  46.717  45.073  0.00  0.00    -0.327 OA
HETATM    4  C   UNK N   1      40.547  47.392  46.238  0.00  0.00     0.299 C 
HETATM    5  C   UNK N   1      40.048  46.360  47.228  0.00  0.00    -0.020 C 
HETATM    6  C   UNK N   1      41.039  45.230  47.512  0.00  0.00     0.069 C 
HETATM    7  C   UNK N   1      38.786  46.424  47.741  0.00  0.00    -0.023 C 
HETATM    8  C   UNK N   1      38.168  45.450  48.712  0.00  0.00     0.036 C 
ENDROOT
BRANCH   4   9
HETATM    9  O   UNK N   1      39.571  48.385  45.979  0.00  0.00    -0.324 OA
BRANCH   9  10
HETATM   10  C   UNK N   1      39.321  48.559  44.596  0.00  0.00     0.295 C 
HETATM   11  O   UNK N   1      39.535  49.915  44.233  0.00  0.00    -0.348 OA
HETATM   12  C   UNK N   1      39.354  50.095  42.838  0.00  0.00     0.179 C 
HETATM   13  C   UNK N   1      37.868  49.873  42.475  0.00  0.00     0.180 C 
HETATM   14  C   UNK N   1      37.472  48.440  42.882  0.00  0.00     0.183 C 
HETATM   15  C   UNK N   1      37.841  48.191  44.351  0.00  0.00     0.204 C 
BRANCH  12  16
HETATM   16  C   UNK N   1      39.809  51.515  42.471  0.00  0.00     0.198 C 
BRANCH  16  17
HETATM   17  O   UNK N   1      40.349  52.165  43.591  0.00  0.00    -0.398 OA
HETATM   18  H   UNK N   1      40.543  53.099  43.319  0.00  0.00     0.209 HD
ENDBRANCH  16  17
ENDBRANCH  12  16
BRANCH  13  19
HETATM   19  O   UNK N   1      37.687  50.046  41.092  0.00  0.00    -0.390 OA
HETATM   20  H   UNK N   1      36.712  50.017  40.918  0.00  0.00     0.210 HD
ENDBRANCH  13  19
BRANCH  14  21
HETATM   21  O   UNK N   1      36.090  48.240  42.719  0.00  0.00    -0.390 OA
HETATM   22  H   UNK N   1      35.655  49.130  42.773  0.00  0.00     0.210 HD
ENDBRANCH  14  21
BRANCH  15  23
HETATM   23  O   UNK N   1      37.606  46.839  44.657  0.00  0.00    -0.388 OA
HETATM   24  H   UNK N   1      36.624  46.696  44.637  0.00  0.00     0.210 HD
ENDBRANCH  15  23
ENDBRANCH   9  10
ENDBRANCH   4   9
BRANCH   6  25
HETATM   25  C   UNK N   1      42.125  45.677  48.518  0.00  0.00     0.125 C 
BRANCH  25  26
HETATM   26  C   UNK N   1      41.824  45.196  49.910  0.00  0.00     0.259 C 
HETATM   27  O   UNK N   1      42.110  45.896  50.872  0.00  0.00    -0.265 OA
BRANCH  26  28
HETATM   28  O   UNK N   1      41.248  43.979  50.084  0.00  0.00    -0.326 OA
HETATM   29  C   UNK N   1      40.391  43.690  51.126  0.00  0.00     0.213 C 
ENDBRANCH  26  28
ENDBRANCH  25  26
ENDBRANCH   6  25
BRANCH   1  30
HETATM   30  C   UNK N   1      42.449  43.505  46.147  0.00  0.00     0.291 C 
HETATM   31  O   UNK N   1      42.492  42.781  47.132  0.00  0.00    -0.260 OA
BRANCH  30  32
HETATM   32  O   UNK N   1      43.067  43.129  44.994  0.00  0.00    -0.323 OA
HETATM   33  C   UNK N   1      44.173  42.308  44.961  0.00  0.00     0.213 C 
ENDBRANCH  30  32
ENDBRANCH   1  30
TORSDOF 12
ENDMDL
MODEL 2
REMARK VINA RESULT:      -5.9      1.344      4.100
REMARK  12 active torsions:
REMARK  status: ('A' for Active; 'I' for Inactive)
REMARK    1  A    between atoms: C_2  and  O_3 
REMARK    2  A    between atoms: C_2  and  C_5 
REMARK    3  A    between atoms: C_8  and  O_9 
REMARK    4  A    between atoms: O_9  and  C_10 
REMARK    5  A    between atoms: C_12  and  C_22 
REMARK    6  A    between atoms: C_13  and  O_14 
REMARK    7  A    between atoms: C_16  and  O_17 
REMARK    8  A    between atoms: C_19  and  O_20 
REMARK    9  A    between atoms: C_22  and  O_23 
REMARK   10  A    between atoms: C_26  and  C_27 
REMARK   11  A    between atoms: C_27  and  C_28 
REMARK   12  A    between atoms: C_28  and  O_30 
ROOT
HETATM    1  C   UNK N   1      39.596  45.627  47.747  0.00  0.00     0.048 C 
HETATM    2  C   UNK N   1      38.627  46.581  47.769  0.00  0.00     0.152 C 
HETATM    3  O   UNK N   1      38.763  47.756  47.091  0.00  0.00    -0.327 OA
HETATM    4  C   UNK N   1      39.717  47.949  46.104  0.00  0.00     0.299 C 
HETATM    5  C   UNK N   1      41.009  47.339  46.607  0.00  0.00    -0.020 C 
HETATM    6  C   UNK N   1      40.904  45.861  46.983  0.00  0.00     0.069 C 
HETATM    7  C   UNK N   1      42.132  48.097  46.769  0.00  0.00    -0.023 C 
HETATM    8  C   UNK N   1      43.466  47.616  47.280  0.00  0.00     0.036 C 
ENDROOT
BRANCH   4   9
HETATM    9  O   UNK N   1      39.864  49.328  45.817  0.00  0.00    -0.324 OA
BRANCH   9  10
HETATM   10  C   UNK N   1      39.029  49.757  44.757  0.00  0.00     0.295 C 
HETATM   11  O   UNK N   1      38.440  48.632  44.119  0.00  0.00    -0.348 OA
HETATM   12  C   UNK N   1      37.549  49.045  43.097  0.00  0.00     0.179 C 
HETATM   13  C   UNK N   1      38.345  49.710  41.952  0.00  0.00     0.180 C 
HETATM   14  C   UNK N   1      39.102  50.926  42.521  0.00  0.00     0.183 C 
HETATM   15  C   UNK N   1      39.926  50.506  43.746  0.00  0.00     0.204 C 
BRANCH  12  16
HETATM   16  C   UNK N   1      36.781  47.812  42.598  0.00  0.00     0.198 C 
BRANCH  16  17
HETATM   17  O   UNK N   1      36.513  46.936  43.660  0.00  0.00    -0.398 OA
HETATM   18  H   UNK N   1      37.206  47.097  44.351  0.00  0.00     0.209 HD
ENDBRANCH  16  17
ENDBRANCH  12  16
BRANCH  13  19
HETATM   19  O   UNK N   1      37.463  50.124  40.939  0.00  0.00    -0.390 OA
HETATM   20  H   UNK N   1      36.564  49.777  41.173  0.00  0.00     0.210 HD
ENDBRANCH  13  19
BRANCH  14  21
HETATM   21  O   UNK N   1      39.967  51.471  41.555  0.00  0.00    -0.390 OA
HETATM   22  H   UNK N   1      39.409  51.983  40.915  0.00  0.00     0.210 HD
ENDBRANCH  14  21
BRANCH  15  23
HETATM   23  O   UNK N   1      40.488  51.653  44.332  0.00  0.00    -0.388 OA
HETATM   24  H   UNK N   1      41.470  51.515  44.374  0.00  0.00     0.210 HD
ENDBRANCH  15  23
ENDBRANCH   9  10
ENDBRANCH   4   9
BRANCH   6  25
HETATM   25  C   UNK N   1      40.960  44.958  45.729  0.00  0.00     0.125 C 
BRANCH  25  26
HETATM   26  C   UNK N   1      42.102  43.983  45.798  0.00  0.00     0.259 C 
HETATM   27  O   UNK N   1      42.490  43.574  46.884  0.00  0.00    -0.265 OA
BRANCH  26  28
HETATM   28  O   UNK N   1      42.700  43.575  44.649  0.00  0.00    -0.326 OA
HETATM   29  C   UNK N   1      43.628  42.556  44.600  0.00  0.00     0.213 C 
ENDBRANCH  26  28
ENDBRANCH  25  26
ENDBRANCH   6  25
BRANCH   1  30
HETATM   30  C   UNK N   1      39.395  44.351  48.490  0.00  0.00     0.291 C 
HETATM   31  O   UNK N   1      38.378  43.696  48.313  0.00  0.00    -0.260 OA
BRANCH  30  32
HETATM   32  O   UNK N   1      40.360  43.901  49.336  0.00  0.00    -0.323 OA
HETATM   33  C   UNK N   1      40.528  44.382  50.617  0.00  0.00     0.213 C 
ENDBRANCH  30  32
ENDBRANCH   1  30
TORSDOF 12
ENDMDL
MODEL 3
REMARK VINA RESULT:      -5.6      1.389      2.409
REMARK  12 active torsions:
REMARK  status: ('A' for Active; 'I' for Inactive)
REMARK    1  A    between atoms: C_2  and  O_3 
REMARK    2  A    between atoms: C_2  and  C_5 
REMARK    3  A    between atoms: C_8  and  O_9 
REMARK    4  A    between atoms: O_9  and  C_10 
REMARK    5  A    between atoms: C_12  and  C_22 
REMARK    6  A    between atoms: C_13  and  O_14 
REMARK    7  A    between atoms: C_16  and  O_17 
REMARK    8  A    between atoms: C_19  and  O_20 
REMARK    9  A    between atoms: C_22  and  O_23 
REMARK   10  A    between atoms: C_26  and  C_27 
REMARK   11  A    between atoms: C_27  and  C_28 
REMARK   12  A    between atoms: C_28  and  O_30 
ROOT
HETATM    1  C   UNK N   1      41.620  43.653  46.200  0.00  0.00     0.048 C 
HETATM    2  C   UNK N   1      40.861  43.816  45.083  0.00  0.00     0.152 C 
HETATM    3  O   UNK N   1      39.863  44.744  45.024  0.00  0.00    -0.327 OA
HETATM    4  C   UNK N   1      39.742  45.777  45.940  0.00  0.00     0.299 C 
HETATM    5  C   UNK N   1      39.999  45.190  47.312  0.00  0.00    -0.020 C 
HETATM    6  C   UNK N   1      41.350  44.490  47.455  0.00  0.00     0.069 C 
HETATM    7  C   UNK N   1      39.048  45.236  48.289  0.00  0.00    -0.023 C 
HETATM    8  C   UNK N   1      39.172  44.671  49.682  0.00  0.00     0.036 C 
ENDROOT
BRANCH   4   9
HETATM    9  O   UNK N   1      38.459  46.370  45.854  0.00  0.00    -0.324 OA
BRANCH   9  10
HETATM   10  C   UNK N   1      38.507  47.715  45.412  0.00  0.00     0.295 C 
HETATM   11  O   UNK N   1      37.970  47.813  44.101  0.00  0.00    -0.348 OA
HETATM   12  C   UNK N   1      37.949  49.163  43.667  0.00  0.00     0.179 C 
HETATM   13  C   UNK N   1      39.396  49.671  43.483  0.00  0.00     0.180 C 
HETATM   14  C   UNK N   1      40.133  49.557  44.832  0.00  0.00     0.183 C 
HETATM   15  C   UNK N   1      39.995  48.132  45.387  0.00  0.00     0.204 C 
BRANCH  12  16
HETATM   16  C   UNK N   1      37.162  49.234  42.350  0.00  0.00     0.198 C 
BRANCH  16  17
HETATM   17  O   UNK N   1      37.993  49.657  41.302  0.00  0.00    -0.398 OA
HETATM   18  H   UNK N   1      38.848  49.952  41.710  0.00  0.00     0.209 HD
ENDBRANCH  16  17
ENDBRANCH  12  16
BRANCH  13  19
HETATM   19  O   UNK N   1      39.378  51.009  43.057  0.00  0.00    -0.390 OA
HETATM   20  H   UNK N   1      39.035  51.553  43.812  0.00  0.00     0.210 HD
ENDBRANCH  13  19
BRANCH  14  21
HETATM   21  O   UNK N   1      41.498  49.856  44.681  0.00  0.00    -0.390 OA
HETATM   22  H   UNK N   1      41.644  50.764  45.053  0.00  0.00     0.210 HD
ENDBRANCH  14  21
BRANCH  15  23
HETATM   23  O   UNK N   1      40.546  48.092  46.679  0.00  0.00    -0.388 OA
HETATM   24  H   UNK N   1      40.797  49.020  46.925  0.00  0.00     0.210 HD
ENDBRANCH  15  23
ENDBRANCH   9  10
ENDBRANCH   4   9
BRANCH   6  25
HETATM   25  C   UNK N   1      42.490  45.511  47.673  0.00  0.00     0.125 C 
BRANCH  25  26
HETATM   26  C   UNK N   1      42.418  46.143  49.036  0.00  0.00     0.259 C 
HETATM   27  O   UNK N   1      42.050  47.305  49.151  0.00  0.00    -0.265 OA
BRANCH  26  28
HETATM   28  O   UNK N   1      42.774  45.417  50.127  0.00  0.00    -0.326 OA
HETATM   29  C   UNK N   1      42.190  45.577  51.366  0.00  0.00     0.213 C 
ENDBRANCH  26  28
ENDBRANCH  25  26
ENDBRANCH   6  25
BRANCH   1  30
HETATM   30  C   UNK N   1      42.710  42.638  46.211  0.00  0.00     0.291 C 
HETATM   31  O   UNK N   1      42.524  41.548  46.733  0.00  0.00    -0.260 OA
BRANCH  30  32
HETATM   32  O   UNK N   1      43.898  42.914  45.608  0.00  0.00    -0.323 OA
HETATM   33  C   UNK N   1      44.418  42.160  44.578  0.00  0.00     0.213 C 
ENDBRANCH  30  32
ENDBRANCH   1  30
TORSDOF 12
ENDMDL
MODEL 4
REMARK VINA RESULT:      -5.6      2.273      8.288
REMARK  12 active torsions:
REMARK  status: ('A' for Active; 'I' for Inactive)
REMARK    1  A    between atoms: C_2  and  O_3 
REMARK    2  A    between atoms: C_2  and  C_5 
REMARK    3  A    between atoms: C_8  and  O_9 
REMARK    4  A    between atoms: O_9  and  C_10 
REMARK    5  A    between atoms: C_12  and  C_22 
REMARK    6  A    between atoms: C_13  and  O_14 
REMARK    7  A    between atoms: C_16  and  O_17 
REMARK    8  A    between atoms: C_19  and  O_20 
REMARK    9  A    between atoms: C_22  and  O_23 
REMARK   10  A    between atoms: C_26  and  C_27 
REMARK   11  A    between atoms: C_27  and  C_28 
REMARK   12  A    between atoms: C_28  and  O_30 
ROOT
HETATM    1  C   UNK N   1      39.588  47.033  46.937  0.00  0.00     0.048 C 
HETATM    2  C   UNK N   1      38.671  46.393  47.712  0.00  0.00     0.152 C 
HETATM    3  O   UNK N   1      38.993  45.283  48.435  0.00  0.00    -0.327 OA
HETATM    4  C   UNK N   1      40.302  44.905  48.689  0.00  0.00     0.299 C 
HETATM    5  C   UNK N   1      41.076  45.083  47.400  0.00  0.00    -0.020 C 
HETATM    6  C   UNK N   1      41.019  46.497  46.822  0.00  0.00     0.069 C 
HETATM    7  C   UNK N   1      41.696  44.029  46.796  0.00  0.00    -0.023 C 
HETATM    8  C   UNK N   1      42.476  44.072  45.506  0.00  0.00     0.036 C 
ENDROOT
BRANCH   4   9
HETATM    9  O   UNK N   1      40.352  43.567  49.151  0.00  0.00    -0.324 OA
BRANCH   9  10
HETATM   10  C   UNK N   1      40.927  43.456  50.440  0.00  0.00     0.295 C 
HETATM   11  O   UNK N   1      39.909  43.249  51.408  0.00  0.00    -0.348 OA
HETATM   12  C   UNK N   1      40.470  43.070  52.698  0.00  0.00     0.179 C 
HETATM   13  C   UNK N   1      41.127  44.388  53.166  0.00  0.00     0.180 C 
HETATM   14  C   UNK N   1      42.225  44.776  52.156  0.00  0.00     0.183 C 
HETATM   15  C   UNK N   1      41.649  44.790  50.733  0.00  0.00     0.204 C 
BRANCH  12  16
HETATM   16  C   UNK N   1      39.352  42.634  53.655  0.00  0.00     0.198 C 
BRANCH  16  17
HETATM   17  O   UNK N   1      38.207  42.259  52.938  0.00  0.00    -0.398 OA
HETATM   18  H   UNK N   1      38.517  41.776  52.128  0.00  0.00     0.209 HD
ENDBRANCH  16  17
ENDBRANCH  12  16
BRANCH  13  19
HETATM   19  O   UNK N   1      41.688  44.210  54.442  0.00  0.00    -0.390 OA
HETATM   20  H   UNK N   1      41.156  43.512  54.902  0.00  0.00     0.210 HD
ENDBRANCH  13  19
BRANCH  14  21
HETATM   21  O   UNK N   1      42.744  46.050  52.450  0.00  0.00    -0.390 OA
HETATM   22  H   UNK N   1      43.675  46.074  52.112  0.00  0.00     0.210 HD
ENDBRANCH  14  21
BRANCH  15  23
HETATM   23  O   UNK N   1      42.696  45.003  49.820  0.00  0.00    -0.388 OA
HETATM   24  H   UNK N   1      43.541  45.039  50.340  0.00  0.00     0.210 HD
ENDBRANCH  15  23
ENDBRANCH   9  10
ENDBRANCH   4   9
BRANCH   6  25
HETATM   25  C   UNK N   1      42.004  47.441  47.550  0.00  0.00     0.125 C 
BRANCH  25  26
HETATM   26  C   UNK N   1      42.912  48.149  46.583  0.00  0.00     0.259 C 
HETATM   27  O   UNK N   1      42.503  48.448  45.469  0.00  0.00    -0.265 OA
BRANCH  26  28
HETATM   28  O   UNK N   1      44.185  48.439  46.956  0.00  0.00    -0.326 OA
HETATM   29  C   UNK N   1      44.832  49.604  46.598  0.00  0.00     0.213 C 
ENDBRANCH  26  28
ENDBRANCH  25  26
ENDBRANCH   6  25
BRANCH   1  30
HETATM   30  C   UNK N   1      39.193  48.252  46.178  0.00  0.00     0.291 C 
HETATM   31  O   UNK N   1      39.028  49.311  46.767  0.00  0.00    -0.260 OA
BRANCH  30  32
HETATM   32  O   UNK N   1      39.052  48.192  44.826  0.00  0.00    -0.323 OA
HETATM   33  C   UNK N   1      39.083  49.303  44.011  0.00  0.00     0.213 C 
ENDBRANCH  30  32
ENDBRANCH   1  30
TORSDOF 12
ENDMDL
MODEL 5
REMARK VINA RESULT:      -5.3      2.443      7.864
REMARK  12 active torsions:
REMARK  status: ('A' for Active; 'I' for Inactive)
REMARK    1  A    between atoms: C_2  and  O_3 
REMARK    2  A    between atoms: C_2  and  C_5 
REMARK    3  A    between atoms: C_8  and  O_9 
REMARK    4  A    between atoms: O_9  and  C_10 
REMARK    5  A    between atoms: C_12  and  C_22 
REMARK    6  A    between atoms: C_13  and  O_14 
REMARK    7  A    between atoms: C_16  and  O_17 
REMARK    8  A    between atoms: C_19  and  O_20 
REMARK    9  A    between atoms: C_22  and  O_23 
REMARK   10  A    between atoms: C_26  and  C_27 
REMARK   11  A    between atoms: C_27  and  C_28 
REMARK   12  A    between atoms: C_28  and  O_30 
ROOT
HETATM    1  C   UNK N   1      42.222  43.668  46.164  0.00  0.00     0.048 C 
HETATM    2  C   UNK N   1      41.926  42.998  47.310  0.00  0.00     0.152 C 
HETATM    3  O   UNK N   1      41.255  43.596  48.336  0.00  0.00    -0.327 OA
HETATM    4  C   UNK N   1      40.564  44.788  48.189  0.00  0.00     0.299 C 
HETATM    5  C   UNK N   1      41.436  45.711  47.363  0.00  0.00    -0.020 C 
HETATM    6  C   UNK N   1      41.841  45.143  46.002  0.00  0.00     0.069 C 
HETATM    7  C   UNK N   1      41.866  46.907  47.857  0.00  0.00    -0.023 C 
HETATM    8  C   UNK N   1      42.751  47.900  47.146  0.00  0.00     0.036 C 
ENDROOT
BRANCH   4   9
HETATM    9  O   UNK N   1      40.261  45.346  49.455  0.00  0.00    -0.324 OA
BRANCH   9  10
HETATM   10  C   UNK N   1      40.896  44.663  50.520  0.00  0.00     0.295 C 
HETATM   11  O   UNK N   1      39.920  44.075  51.368  0.00  0.00    -0.348 OA
HETATM   12  C   UNK N   1      40.539  43.330  52.404  0.00  0.00     0.179 C 
HETATM   13  C   UNK N   1      41.287  44.289  53.356  0.00  0.00     0.180 C 
HETATM   14  C   UNK N   1      42.350  45.057  52.545  0.00  0.00     0.183 C 
HETATM   15  C   UNK N   1      41.702  45.712  51.318  0.00  0.00     0.204 C 
BRANCH  12  16
HETATM   16  C   UNK N   1      39.451  42.543  53.149  0.00  0.00     0.198 C 
BRANCH  16  17
HETATM   17  O   UNK N   1      39.099  43.195  54.340  0.00  0.00    -0.398 OA
HETATM   18  H   UNK N   1      39.377  42.604  55.087  0.00  0.00     0.209 HD
ENDBRANCH  16  17
ENDBRANCH  12  16
BRANCH  13  19
HETATM   19  O   UNK N   1      41.905  43.553  54.381  0.00  0.00    -0.390 OA
HETATM   20  H   UNK N   1      41.462  42.666  54.414  0.00  0.00     0.210 HD
ENDBRANCH  13  19
BRANCH  14  21
HETATM   21  O   UNK N   1      42.950  46.057  53.331  0.00  0.00    -0.390 OA
HETATM   22  H   UNK N   1      42.913  46.901  52.813  0.00  0.00     0.210 HD
ENDBRANCH  14  21
BRANCH  15  23
HETATM   23  O   UNK N   1      42.709  46.281  50.520  0.00  0.00    -0.388 OA
HETATM   24  H   UNK N   1      42.263  46.777  49.786  0.00  0.00     0.210 HD
ENDBRANCH  15  23
ENDBRANCH   9  10
ENDBRANCH   4   9
BRANCH   6  25
HETATM   25  C   UNK N   1      40.698  45.291  44.971  0.00  0.00     0.125 C 
BRANCH  25  26
HETATM   26  C   UNK N   1      39.777  46.427  45.320  0.00  0.00     0.259 C 
HETATM   27  O   UNK N   1      38.717  46.200  45.888  0.00  0.00    -0.265 OA
BRANCH  26  28
HETATM   28  O   UNK N   1      40.129  47.696  44.989  0.00  0.00    -0.326 OA
HETATM   29  C   UNK N   1      39.565  48.813  45.569  0.00  0.00     0.213 C 
ENDBRANCH  26  28
ENDBRANCH  25  26
ENDBRANCH   6  25
BRANCH   1  30
HETATM   30  C   UNK N   1      42.942  42.967  45.063  0.00  0.00     0.291 C 
HETATM   31  O   UNK N   1      42.927  43.431  43.932  0.00  0.00    -0.260 OA
BRANCH  30  32
HETATM   32  O   UNK N   1      43.644  41.833  45.329  0.00  0.00    -0.323 OA
HETATM   33  C   UNK N   1      44.979  41.832  45.674  0.00  0.00     0.213 C 
ENDBRANCH  30  32
ENDBRANCH   1  30
TORSDOF 12
ENDMDL
MODEL 6
REMARK VINA RESULT:      -5.0      1.038      3.348
REMARK  12 active torsions:
REMARK  status: ('A' for Active; 'I' for Inactive)
REMARK    1  A    between atoms: C_2  and  O_3 
REMARK    2  A    between atoms: C_2  and  C_5 
REMARK    3  A    between atoms: C_8  and  O_9 
REMARK    4  A    between atoms: O_9  and  C_10 
REMARK    5  A    between atoms: C_12  and  C_22 
REMARK    6  A    between atoms: C_13  and  O_14 
REMARK    7  A    between atoms: C_16  and  O_17 
REMARK    8  A    between atoms: C_19  and  O_20 
REMARK    9  A    between atoms: C_22  and  O_23 
REMARK   10  A    between atoms: C_26  and  C_27 
REMARK   11  A    between atoms: C_27  and  C_28 
REMARK   12  A    between atoms: C_28  and  O_30 
ROOT
HETATM    1  C   UNK N   1      40.055  45.330  48.324  0.00  0.00     0.048 C 
HETATM    2  C   UNK N   1      38.961  46.135  48.386  0.00  0.00     0.152 C 
HETATM    3  O   UNK N   1      38.807  47.202  47.550  0.00  0.00    -0.327 OA
HETATM    4  C   UNK N   1      39.562  47.370  46.400  0.00  0.00     0.299 C 
HETATM    5  C   UNK N   1      40.994  47.025  46.752  0.00  0.00    -0.020 C 
HETATM    6  C   UNK N   1      41.181  45.621  47.327  0.00  0.00     0.069 C 
HETATM    7  C   UNK N   1      41.994  47.944  46.624  0.00  0.00    -0.023 C 
HETATM    8  C   UNK N   1      43.449  47.732  46.960  0.00  0.00     0.036 C 
ENDROOT
BRANCH   4   9
HETATM    9  O   UNK N   1      39.445  48.696  45.918  0.00  0.00    -0.324 OA
BRANCH   9  10
HETATM   10  C   UNK N   1      39.218  48.751  44.521  0.00  0.00     0.295 C 
HETATM   11  O   UNK N   1      39.451  50.069  44.044  0.00  0.00    -0.348 OA
HETATM   12  C   UNK N   1      39.293  50.129  42.637  0.00  0.00     0.179 C 
HETATM   13  C   UNK N   1      37.811  49.889  42.270  0.00  0.00     0.180 C 
HETATM   14  C   UNK N   1      37.394  48.500  42.794  0.00  0.00     0.183 C 
HETATM   15  C   UNK N   1      37.738  48.376  44.285  0.00  0.00     0.204 C 
BRANCH  12  16
HETATM   16  C   UNK N   1      39.768  51.508  42.155  0.00  0.00     0.198 C 
BRANCH  16  17
HETATM   17  O   UNK N   1      40.169  52.298  43.243  0.00  0.00    -0.398 OA
HETATM   18  H   UNK N   1      41.145  52.163  43.356  0.00  0.00     0.209 HD
ENDBRANCH  16  17
ENDBRANCH  12  16
BRANCH  13  19
HETATM   19  O   UNK N   1      37.653  49.943  40.875  0.00  0.00    -0.390 OA
HETATM   20  H   UNK N   1      37.786  49.024  40.529  0.00  0.00     0.210 HD
ENDBRANCH  13  19
BRANCH  14  21
HETATM   21  O   UNK N   1      36.012  48.299  42.627  0.00  0.00    -0.390 OA
HETATM   22  H   UNK N   1      35.567  49.172  42.777  0.00  0.00     0.210 HD
ENDBRANCH  14  21
BRANCH  15  23
HETATM   23  O   UNK N   1      37.484  47.058  44.703  0.00  0.00    -0.388 OA
HETATM   24  H   UNK N   1      36.719  46.719  44.169  0.00  0.00     0.210 HD
ENDBRANCH  15  23
ENDBRANCH   9  10
ENDBRANCH   4   9
BRANCH   6  25
HETATM   25  C   UNK N   1      41.194  44.554  46.208  0.00  0.00     0.125 C 
BRANCH  25  26
HETATM   26  C   UNK N   1      42.371  43.627  46.337  0.00  0.00     0.259 C 
HETATM   27  O   UNK N   1      42.523  42.973  47.360  0.00  0.00    -0.265 OA
BRANCH  26  28
HETATM   28  O   UNK N   1      43.263  43.537  45.317  0.00  0.00    -0.326 OA
HETATM   29  C   UNK N   1      43.737  42.336  44.831  0.00  0.00     0.213 C 
ENDBRANCH  26  28
ENDBRANCH  25  26
ENDBRANCH   6  25
BRANCH   1  30
HETATM   30  C   UNK N   1      40.170  44.167  49.248  0.00  0.00     0.291 C 
HETATM   31  O   UNK N   1      39.337  43.272  49.210  0.00  0.00    -0.260 OA
BRANCH  30  32
HETATM   32  O   UNK N   1      41.222  44.085  50.106  0.00  0.00    -0.323 OA
HETATM   33  C   UNK N   1      41.528  45.067  51.024  0.00  0.00     0.213 C 
ENDBRANCH  30  32
ENDBRANCH   1  30
TORSDOF 12
ENDMDL
MODEL 7
REMARK VINA RESULT:      -5.0      1.861      3.753
REMARK  12 active torsions:
REMARK  status: ('A' for Active; 'I' for Inactive)
REMARK    1  A    between atoms: C_2  and  O_3 
REMARK    2  A    between atoms: C_2  and  C_5 
REMARK    3  A    between atoms: C_8  and  O_9 
REMARK    4  A    between atoms: O_9  and  C_10 
REMARK    5  A    between atoms: C_12  and  C_22 
REMARK    6  A    between atoms: C_13  and  O_14 
REMARK    7  A    between atoms: C_16  and  O_17 
REMARK    8  A    between atoms: C_19  and  O_20 
REMARK    9  A    between atoms: C_22  and  O_23 
REMARK   10  A    between atoms: C_26  and  C_27 
REMARK   11  A    between atoms: C_27  and  C_28 
REMARK   12  A    between atoms: C_28  and  O_30 
ROOT
HETATM    1  C   UNK N   1      42.053  46.933  48.397  0.00  0.00     0.048 C 
HETATM    2  C   UNK N   1      42.234  48.032  47.618  0.00  0.00     0.152 C 
HETATM    3  O   UNK N   1      41.574  48.188  46.435  0.00  0.00    -0.327 OA
HETATM    4  C   UNK N   1      40.468  47.429  46.085  0.00  0.00     0.299 C 
HETATM    5  C   UNK N   1      40.769  45.997  46.472  0.00  0.00    -0.020 C 
HETATM    6  C   UNK N   1      41.119  45.804  47.948  0.00  0.00     0.069 C 
HETATM    7  C   UNK N   1      40.792  45.002  45.539  0.00  0.00    -0.023 C 
HETATM    8  C   UNK N   1      41.098  43.547  45.793  0.00  0.00     0.036 C 
ENDROOT
BRANCH   4   9
HETATM    9  O   UNK N   1      40.198  47.553  44.700  0.00  0.00    -0.324 OA
BRANCH   9  10
HETATM   10  C   UNK N   1      39.146  48.461  44.428  0.00  0.00     0.295 C 
HETATM   11  O   UNK N   1      38.104  47.798  43.726  0.00  0.00    -0.348 OA
HETATM   12  C   UNK N   1      37.013  48.675  43.502  0.00  0.00     0.179 C 
HETATM   13  C   UNK N   1      37.435  49.788  42.517  0.00  0.00     0.180 C 
HETATM   14  C   UNK N   1      38.622  50.560  43.127  0.00  0.00     0.183 C 
HETATM   15  C   UNK N   1      39.730  49.580  43.537  0.00  0.00     0.204 C 
BRANCH  12  16
HETATM   16  C   UNK N   1      35.840  47.855  42.945  0.00  0.00     0.198 C 
BRANCH  16  17
HETATM   17  O   UNK N   1      34.624  48.516  43.174  0.00  0.00    -0.398 OA
HETATM   18  H   UNK N   1      33.926  48.020  42.673  0.00  0.00     0.209 HD
ENDBRANCH  16  17
ENDBRANCH  12  16
BRANCH  13  19
HETATM   19  O   UNK N   1      36.357  50.661  42.297  0.00  0.00    -0.390 OA
HETATM   20  H   UNK N   1      35.619  50.373  42.894  0.00  0.00     0.210 HD
ENDBRANCH  13  19
BRANCH  14  21
HETATM   21  O   UNK N   1      39.147  51.479  42.201  0.00  0.00    -0.390 OA
HETATM   22  H   UNK N   1      38.445  51.647  41.521  0.00  0.00     0.210 HD
ENDBRANCH  14  21
BRANCH  15  23
HETATM   23  O   UNK N   1      40.734  50.289  44.220  0.00  0.00    -0.388 OA
HETATM   24  H   UNK N   1      40.707  50.002  45.170  0.00  0.00     0.210 HD
ENDBRANCH  15  23
ENDBRANCH   9  10
ENDBRANCH   4   9
BRANCH   6  25
HETATM   25  C   UNK N   1      39.847  45.779  48.827  0.00  0.00     0.125 C 
BRANCH  25  26
HETATM   26  C   UNK N   1      39.253  44.400  48.907  0.00  0.00     0.259 C 
HETATM   27  O   UNK N   1      38.279  44.115  48.223  0.00  0.00    -0.265 OA
BRANCH  26  28
HETATM   28  O   UNK N   1      39.799  43.488  49.751  0.00  0.00    -0.326 OA
HETATM   29  C   UNK N   1      40.974  42.817  49.482  0.00  0.00     0.213 C 
ENDBRANCH  26  28
ENDBRANCH  25  26
ENDBRANCH   6  25
BRANCH   1  30
HETATM   30  C   UNK N   1      42.784  46.814  49.690  0.00  0.00     0.291 C 
HETATM   31  O   UNK N   1      43.367  47.785  50.152  0.00  0.00    -0.260 OA
BRANCH  30  32
HETATM   32  O   UNK N   1      42.770  45.636  50.370  0.00  0.00    -0.323 OA
HETATM   33  C   UNK N   1      42.205  45.490  51.619  0.00  0.00     0.213 C 
ENDBRANCH  30  32
ENDBRANCH   1  30
TORSDOF 12
ENDMDL
MODEL 8
REMARK VINA RESULT:      -4.9     10.112     14.034
REMARK  12 active torsions:
REMARK  status: ('A' for Active; 'I' for Inactive)
REMARK    1  A    between atoms: C_2  and  O_3 
REMARK    2  A    between atoms: C_2  and  C_5 
REMARK    3  A    between atoms: C_8  and  O_9 
REMARK    4  A    between atoms: O_9  and  C_10 
REMARK    5  A    between atoms: C_12  and  C_22 
REMARK    6  A    between atoms: C_13  and  O_14 
REMARK    7  A    between atoms: C_16  and  O_17 
REMARK    8  A    between atoms: C_19  and  O_20 
REMARK    9  A    between atoms: C_22  and  O_23 
REMARK   10  A    between atoms: C_26  and  C_27 
REMARK   11  A    between atoms: C_27  and  C_28 
REMARK   12  A    between atoms: C_28  and  O_30 
ROOT
HETATM    1  C   UNK N   1      32.333  54.848  43.686  0.00  0.00     0.048 C 
HETATM    2  C   UNK N   1      31.484  55.906  43.605  0.00  0.00     0.152 C 
HETATM    3  O   UNK N   1      30.225  55.778  43.098  0.00  0.00    -0.327 OA
HETATM    4  C   UNK N   1      29.608  54.550  42.920  0.00  0.00     0.299 C 
HETATM    5  C   UNK N   1      30.641  53.612  42.331  0.00  0.00    -0.020 C 
HETATM    6  C   UNK N   1      31.911  53.468  43.169  0.00  0.00     0.069 C 
HETATM    7  C   UNK N   1      30.449  53.023  41.116  0.00  0.00    -0.023 C 
HETATM    8  C   UNK N   1      31.407  52.093  40.414  0.00  0.00     0.036 C 
ENDROOT
BRANCH   4   9
HETATM    9  O   UNK N   1      28.476  54.679  42.080  0.00  0.00    -0.324 OA
BRANCH   9  10
HETATM   10  C   UNK N   1      27.989  56.007  42.019  0.00  0.00     0.295 C 
HETATM   11  O   UNK N   1      26.633  56.045  42.440  0.00  0.00    -0.348 OA
HETATM   12  C   UNK N   1      26.147  57.377  42.448  0.00  0.00     0.179 C 
HETATM   13  C   UNK N   1      26.072  57.911  41.000  0.00  0.00     0.180 C 
HETATM   14  C   UNK N   1      27.484  57.863  40.384  0.00  0.00     0.183 C 
HETATM   15  C   UNK N   1      28.079  56.457  40.543  0.00  0.00     0.204 C 
BRANCH  12  16
HETATM   16  C   UNK N   1      24.765  57.384  43.116  0.00  0.00     0.198 C 
BRANCH  16  17
HETATM   17  O   UNK N   1      24.824  56.771  44.376  0.00  0.00    -0.398 OA
HETATM   18  H   UNK N   1      25.660  56.237  44.400  0.00  0.00     0.209 HD
ENDBRANCH  16  17
ENDBRANCH  12  16
BRANCH  13  19
HETATM   19  O   UNK N   1      25.595  59.233  41.007  0.00  0.00    -0.390 OA
HETATM   20  H   UNK N   1      26.014  59.700  40.238  0.00  0.00     0.210 HD
ENDBRANCH  13  19
BRANCH  14  21
HETATM   21  O   UNK N   1      27.443  58.188  39.017  0.00  0.00    -0.390 OA
HETATM   22  H   UNK N   1      28.327  57.957  38.632  0.00  0.00     0.210 HD
ENDBRANCH  14  21
BRANCH  15  23
HETATM   23  O   UNK N   1      29.415  56.476  40.108  0.00  0.00    -0.388 OA
HETATM   24  H   UNK N   1      29.866  57.234  40.563  0.00  0.00     0.210 HD
ENDBRANCH  15  23
ENDBRANCH   9  10
ENDBRANCH   4   9
BRANCH   6  25
HETATM   25  C   UNK N   1      31.696  52.496  44.352  0.00  0.00     0.125 C 
BRANCH  25  26
HETATM   26  C   UNK N   1      32.620  51.312  44.273  0.00  0.00     0.259 C 
HETATM   27  O   UNK N   1      33.832  51.480  44.324  0.00  0.00    -0.265 OA
BRANCH  26  28
HETATM   28  O   UNK N   1      32.097  50.067  44.134  0.00  0.00    -0.326 OA
HETATM   29  C   UNK N   1      31.986  49.426  42.918  0.00  0.00     0.213 C 
ENDBRANCH  26  28
ENDBRANCH  25  26
ENDBRANCH   6  25
BRANCH   1  30
HETATM   30  C   UNK N   1      33.694  55.034  44.263  0.00  0.00     0.291 C 
HETATM   31  O   UNK N   1      34.681  54.922  43.550  0.00  0.00    -0.260 OA
BRANCH  30  32
HETATM   32  O   UNK N   1      33.833  55.364  45.576  0.00  0.00    -0.323 OA
HETATM   33  C   UNK N   1      34.307  56.586  46.003  0.00  0.00     0.213 C 
ENDBRANCH  30  32
ENDBRANCH   1  30
TORSDOF 12
ENDMDL
MODEL 9
REMARK VINA RESULT:      -4.9     15.051     17.152
REMARK  12 active torsions:
REMARK  status: ('A' for Active; 'I' for Inactive)
REMARK    1  A    between atoms: C_2  and  O_3 
REMARK    2  A    between atoms: C_2  and  C_5 
REMARK    3  A    between atoms: C_8  and  O_9 
REMARK    4  A    between atoms: O_9  and  C_10 
REMARK    5  A    between atoms: C_12  and  C_22 
REMARK    6  A    between atoms: C_13  and  O_14 
REMARK    7  A    between atoms: C_16  and  O_17 
REMARK    8  A    between atoms: C_19  and  O_20 
REMARK    9  A    between atoms: C_22  and  O_23 
REMARK   10  A    between atoms: C_26  and  C_27 
REMARK   11  A    between atoms: C_27  and  C_28 
REMARK   12  A    between atoms: C_28  and  O_30 
ROOT
HETATM    1  C   UNK N   1      45.279  51.446  62.192  0.00  0.00     0.048 C 
HETATM    2  C   UNK N   1      45.092  52.790  62.100  0.00  0.00     0.152 C 
HETATM    3  O   UNK N   1      45.934  53.583  61.379  0.00  0.00    -0.327 OA
HETATM    4  C   UNK N   1      46.834  53.079  60.454  0.00  0.00     0.299 C 
HETATM    5  C   UNK N   1      47.473  51.853  61.074  0.00  0.00    -0.020 C 
HETATM    6  C   UNK N   1      46.478  50.778  61.511  0.00  0.00     0.069 C 
HETATM    7  C   UNK N   1      48.819  51.786  61.278  0.00  0.00    -0.023 C 
HETATM    8  C   UNK N   1      49.570  50.636  61.904  0.00  0.00     0.036 C 
ENDROOT
BRANCH   4   9
HETATM    9  O   UNK N   1      47.799  54.058  60.113  0.00  0.00    -0.324 OA
BRANCH   9  10
HETATM   10  C   UNK N   1      47.669  54.510  58.777  0.00  0.00     0.295 C 
HETATM   11  O   UNK N   1      48.914  54.393  58.103  0.00  0.00    -0.348 OA
HETATM   12  C   UNK N   1      48.788  54.780  56.745  0.00  0.00     0.179 C 
HETATM   13  C   UNK N   1      48.495  56.294  56.662  0.00  0.00     0.180 C 
HETATM   14  C   UNK N   1      47.185  56.584  57.422  0.00  0.00     0.183 C 
HETATM   15  C   UNK N   1      47.260  55.999  58.839  0.00  0.00     0.204 C 
BRANCH  12  16
HETATM   16  C   UNK N   1      50.094  54.425  56.019  0.00  0.00     0.198 C 
BRANCH  16  17
HETATM   17  O   UNK N   1      49.840  54.105  54.677  0.00  0.00    -0.398 OA
HETATM   18  H   UNK N   1      50.574  54.501  54.140  0.00  0.00     0.209 HD
ENDBRANCH  16  17
ENDBRANCH  12  16
BRANCH  13  19
HETATM   19  O   UNK N   1      48.366  56.679  55.317  0.00  0.00    -0.390 OA
HETATM   20  H   UNK N   1      47.441  57.015  55.196  0.00  0.00     0.210 HD
ENDBRANCH  13  19
BRANCH  14  21
HETATM   21  O   UNK N   1      46.958  57.969  57.513  0.00  0.00    -0.390 OA
HETATM   22  H   UNK N   1      47.178  58.362  56.629  0.00  0.00     0.210 HD
ENDBRANCH  14  21
BRANCH  15  23
HETATM   23  O   UNK N   1      46.007  56.147  59.459  0.00  0.00    -0.388 OA
HETATM   24  H   UNK N   1      45.322  55.795  58.832  0.00  0.00     0.210 HD
ENDBRANCH  15  23
ENDBRANCH   9  10
ENDBRANCH   4   9
BRANCH   6  25
HETATM   25  C   UNK N   1      46.006  49.929  60.308  0.00  0.00     0.125 C 
BRANCH  25  26
HETATM   26  C   UNK N   1      46.463  48.501  60.422  0.00  0.00     0.259 C 
HETATM   27  O   UNK N   1      45.920  47.749  61.221  0.00  0.00    -0.265 OA
BRANCH  26  28
HETATM   28  O   UNK N   1      47.485  48.064  59.642  0.00  0.00    -0.326 OA
HETATM   29  C   UNK N   1      47.307  47.228  58.560  0.00  0.00     0.213 C 
ENDBRANCH  26  28
ENDBRANCH  25  26
ENDBRANCH   6  25
BRANCH   1  30
HETATM   30  C   UNK N   1      44.322  50.618  62.978  0.00  0.00     0.291 C 
HETATM   31  O   UNK N   1      44.738  49.858  63.841  0.00  0.00    -0.260 OA
BRANCH  30  32
HETATM   32  O   UNK N   1      42.984  50.738  62.758  0.00  0.00    -0.323 OA
HETATM   33  C   UNK N   1      42.404  50.577  61.518  0.00  0.00     0.213 C 
ENDBRANCH  30  32
ENDBRANCH   1  30
TORSDOF 12
ENDMDL
