MODEL 1
REMARK VINA RESULT:      -6.0      0.000      0.000
REMARK  12 active torsions:
REMARK  status: ('A' for Active; 'I' for Inactive)
REMARK    1  A    between atoms: C_2  and  O_3 
REMARK    2  A    between atoms: C_2  and  C_5 
REMARK    3  A    between atoms: C_8  and  O_9 
REMARK    4  A    between atoms: O_9  and  C_10 
REMARK    5  A    between atoms: C_12  and  C_22 
REMARK    6  A    between atoms: C_13  and  O_14 
REMARK    7  A    between atoms: C_16  and  O_17 
REMARK    8  A    between atoms: C_19  and  O_20 
REMARK    9  A    between atoms: C_22  and  O_23 
REMARK   10  A    between atoms: C_26  and  C_27 
REMARK   11  A    between atoms: C_27  and  C_28 
REMARK   12  A    between atoms: C_28  and  O_30 
ROOT
HETATM    1  C   UNK N   1      39.829  45.524  47.641  0.00  0.00     0.048 C 
HETATM    2  C   UNK N   1      38.760  46.353  47.766  0.00  0.00     0.152 C 
HETATM    3  O   UNK N   1      38.704  47.556  47.129  0.00  0.00    -0.327 OA
HETATM    4  C   UNK N   1      39.575  47.937  46.122  0.00  0.00     0.299 C 
HETATM    5  C   UNK N   1      40.960  47.413  46.467  0.00  0.00    -0.020 C 
HETATM    6  C   UNK N   1      41.024  45.917  46.762  0.00  0.00     0.070 C 
HETATM    7  C   UNK N   1      42.033  48.251  46.542  0.00  0.00    -0.023 C 
HETATM    8  C   UNK N   1      43.456  47.849  46.839  0.00  0.00     0.036 C 
ENDROOT
BRANCH   4   9
HETATM    9  O   UNK N   1      39.576  49.347  45.964  0.00  0.00    -0.324 OA
BRANCH   9  10
HETATM   10  C   UNK N   1      38.843  49.763  44.826  0.00  0.00     0.295 C 
HETATM   11  O   UNK N   1      38.277  48.635  44.174  0.00  0.00    -0.348 OA
HETATM   12  C   UNK N   1      37.491  49.037  43.063  0.00  0.00     0.179 C 
HETATM   13  C   UNK N   1      38.399  49.664  41.980  0.00  0.00     0.180 C 
HETATM   14  C   UNK N   1      39.107  50.890  42.583  0.00  0.00     0.183 C 
HETATM   15  C   UNK N   1      39.830  50.467  43.871  0.00  0.00     0.204 C 
BRANCH  12  16
HETATM   16  C   UNK N   1      36.756  47.804  42.526  0.00  0.00     0.198 C 
BRANCH  16  17
HETATM   17  O   UNK N   1      36.483  46.928  43.584  0.00  0.00    -0.398 OA
HETATM   18  H   UNK N   1      35.977  47.454  44.256  0.00  0.00     0.209 HD
ENDBRANCH  16  17
ENDBRANCH  12  16
BRANCH  13  19
HETATM   19  O   UNK N   1      37.629  50.052  40.871  0.00  0.00    -0.390 OA
HETATM   20  H   UNK N   1      37.858  50.999  40.678  0.00  0.00     0.210 HD
ENDBRANCH  13  19
BRANCH  14  21
HETATM   21  O   UNK N   1      40.039  51.421  41.676  0.00  0.00    -0.390 OA
HETATM   22  H   UNK N   1      40.882  50.913  41.796  0.00  0.00     0.210 HD
ENDBRANCH  14  21
BRANCH  15  23
HETATM   23  O   UNK N   1      40.442  51.572  44.492  0.00  0.00    -0.388 OA
HETATM   24  H   UNK N   1      39.724  52.132  44.889  0.00  0.00     0.210 HD
ENDBRANCH  15  23
ENDBRANCH   9  10
ENDBRANCH   4   9
BRANCH   6  25
HETATM   25  C   UNK N   1      41.031  45.142  45.421  0.00  0.00     0.124 C 
BRANCH  25  26
HETATM   26  C   UNK N   1      42.048  44.040  45.351  0.00  0.00     0.140 C 
HETATM   27  O   UNK N   1      42.241  43.448  44.300  0.00  0.00    -0.650 OA
BRANCH  26  28
HETATM   28  O   UNK N   1      42.728  43.686  46.464  0.00  0.00    -0.776 OA
HETATM   29  H   UNK N   1      42.414  42.972  47.037  0.00  0.00     0.167 HD
ENDBRANCH  26  28
ENDBRANCH  25  26
ENDBRANCH   6  25
BRANCH   1  30
HETATM   30  C   UNK N   1      39.863  44.257  48.427  0.00  0.00     0.291 C 
HETATM   31  O   UNK N   1      38.833  43.796  48.898  0.00  0.00    -0.260 OA
BRANCH  30  32
HETATM   32  O   UNK N   1      41.063  43.686  48.718  0.00  0.00    -0.323 OA
HETATM   33  C   UNK N   1      41.767  43.951  49.873  0.00  0.00     0.213 C 
ENDBRANCH  30  32
ENDBRANCH   1  30
TORSDOF 12
ENDMDL
MODEL 2
REMARK VINA RESULT:      -5.6      2.619      7.999
REMARK  12 active torsions:
REMARK  status: ('A' for Active; 'I' for Inactive)
REMARK    1  A    between atoms: C_2  and  O_3 
REMARK    2  A    between atoms: C_2  and  C_5 
REMARK    3  A    between atoms: C_8  and  O_9 
REMARK    4  A    between atoms: O_9  and  C_10 
REMARK    5  A    between atoms: C_12  and  C_22 
REMARK    6  A    between atoms: C_13  and  O_14 
REMARK    7  A    between atoms: C_16  and  O_17 
REMARK    8  A    between atoms: C_19  and  O_20 
REMARK    9  A    between atoms: C_22  and  O_23 
REMARK   10  A    between atoms: C_26  and  C_27 
REMARK   11  A    between atoms: C_27  and  C_28 
REMARK   12  A    between atoms: C_28  and  O_30 
ROOT
HETATM    1  C   UNK N   1      39.765  47.129  46.980  0.00  0.00     0.048 C 
HETATM    2  C   UNK N   1      38.895  46.611  47.887  0.00  0.00     0.152 C 
HETATM    3  O   UNK N   1      39.205  45.516  48.636  0.00  0.00    -0.327 OA
HETATM    4  C   UNK N   1      40.481  44.989  48.741  0.00  0.00     0.299 C 
HETATM    5  C   UNK N   1      41.154  45.097  47.382  0.00  0.00    -0.020 C 
HETATM    6  C   UNK N   1      41.145  46.495  46.771  0.00  0.00     0.070 C 
HETATM    7  C   UNK N   1      41.675  43.999  46.765  0.00  0.00    -0.023 C 
HETATM    8  C   UNK N   1      42.394  43.981  45.439  0.00  0.00     0.036 C 
ENDROOT
BRANCH   4   9
HETATM    9  O   UNK N   1      40.436  43.646  49.196  0.00  0.00    -0.324 OA
BRANCH   9  10
HETATM   10  C   UNK N   1      40.982  43.497  50.494  0.00  0.00     0.295 C 
HETATM   11  O   UNK N   1      39.942  43.282  51.438  0.00  0.00    -0.348 OA
HETATM   12  C   UNK N   1      40.474  43.073  52.736  0.00  0.00     0.179 C 
HETATM   13  C   UNK N   1      41.154  44.369  53.236  0.00  0.00     0.180 C 
HETATM   14  C   UNK N   1      42.290  44.734  52.264  0.00  0.00     0.183 C 
HETATM   15  C   UNK N   1      41.724  44.807  50.837  0.00  0.00     0.204 C 
BRANCH  12  16
HETATM   16  C   UNK N   1      39.327  42.656  53.662  0.00  0.00     0.198 C 
BRANCH  16  17
HETATM   17  O   UNK N   1      38.232  42.245  52.890  0.00  0.00    -0.398 OA
HETATM   18  H   UNK N   1      37.687  41.658  53.475  0.00  0.00     0.209 HD
ENDBRANCH  16  17
ENDBRANCH  12  16
BRANCH  13  19
HETATM   19  O   UNK N   1      41.671  44.175  54.527  0.00  0.00    -0.390 OA
HETATM   20  H   UNK N   1      42.439  43.551  54.440  0.00  0.00     0.210 HD
ENDBRANCH  13  19
BRANCH  14  21
HETATM   21  O   UNK N   1      42.858  45.972  52.606  0.00  0.00    -0.390 OA
HETATM   22  H   UNK N   1      43.830  45.905  52.423  0.00  0.00     0.210 HD
ENDBRANCH  14  21
BRANCH  15  23
HETATM   23  O   UNK N   1      42.742  45.077  49.904  0.00  0.00    -0.388 OA
HETATM   24  H   UNK N   1      43.331  45.776  50.292  0.00  0.00     0.210 HD
ENDBRANCH  15  23
ENDBRANCH   9  10
ENDBRANCH   4   9
BRANCH   6  25
HETATM   25  C   UNK N   1      42.270  47.335  47.428  0.00  0.00     0.124 C 
BRANCH  25  26
HETATM   26  C   UNK N   1      42.971  48.270  46.485  0.00  0.00     0.140 C 
HETATM   27  O   UNK N   1      42.453  48.569  45.420  0.00  0.00    -0.650 OA
BRANCH  26  28
HETATM   28  O   UNK N   1      44.190  48.755  46.807  0.00  0.00    -0.776 OA
HETATM   29  H   UNK N   1      44.328  49.699  46.966  0.00  0.00     0.167 HD
ENDBRANCH  26  28
ENDBRANCH  25  26
ENDBRANCH   6  25
BRANCH   1  30
HETATM   30  C   UNK N   1      39.334  48.280  46.135  0.00  0.00     0.291 C 
HETATM   31  O   UNK N   1      39.036  49.347  46.653  0.00  0.00    -0.260 OA
BRANCH  30  32
HETATM   32  O   UNK N   1      39.159  48.097  44.799  0.00  0.00    -0.323 OA
HETATM   33  C   UNK N   1      38.915  49.130  43.919  0.00  0.00     0.213 C 
ENDBRANCH  30  32
ENDBRANCH   1  30
TORSDOF 12
ENDMDL
MODEL 3
REMARK VINA RESULT:      -4.9     13.659     16.490
REMARK  12 active torsions:
REMARK  status: ('A' for Active; 'I' for Inactive)
REMARK    1  A    between atoms: C_2  and  O_3 
REMARK    2  A    between atoms: C_2  and  C_5 
REMARK    3  A    between atoms: C_8  and  O_9 
REMARK    4  A    between atoms: O_9  and  C_10 
REMARK    5  A    between atoms: C_12  and  C_22 
REMARK    6  A    between atoms: C_13  and  O_14 
REMARK    7  A    between atoms: C_16  and  O_17 
REMARK    8  A    between atoms: C_19  and  O_20 
REMARK    9  A    between atoms: C_22  and  O_23 
REMARK   10  A    between atoms: C_26  and  C_27 
REMARK   11  A    between atoms: C_27  and  C_28 
REMARK   12  A    between atoms: C_28  and  O_30 
ROOT
HETATM    1  C   UNK N   1      27.090  41.694  53.450  0.00  0.00     0.048 C 
HETATM    2  C   UNK N   1      26.428  42.354  54.436  0.00  0.00     0.152 C 
HETATM    3  O   UNK N   1      26.981  42.553  55.665  0.00  0.00    -0.327 OA
HETATM    4  C   UNK N   1      28.320  42.343  55.952  0.00  0.00     0.299 C 
HETATM    5  C   UNK N   1      28.784  41.114  55.187  0.00  0.00    -0.020 C 
HETATM    6  C   UNK N   1      28.504  41.148  53.688  0.00  0.00     0.070 C 
HETATM    7  C   UNK N   1      29.361  40.060  55.830  0.00  0.00    -0.023 C 
HETATM    8  C   UNK N   1      29.892  38.805  55.183  0.00  0.00     0.036 C 
ENDROOT
BRANCH   4   9
HETATM    9  O   UNK N   1      28.518  42.194  57.349  0.00  0.00    -0.324 OA
BRANCH   9  10
HETATM   10  C   UNK N   1      29.054  43.361  57.945  0.00  0.00     0.295 C 
HETATM   11  O   UNK N   1      28.191  44.466  57.714  0.00  0.00    -0.348 OA
HETATM   12  C   UNK N   1      28.683  45.633  58.353  0.00  0.00     0.179 C 
HETATM   13  C   UNK N   1      30.012  46.069  57.694  0.00  0.00     0.180 C 
HETATM   14  C   UNK N   1      31.033  44.927  57.845  0.00  0.00     0.183 C 
HETATM   15  C   UNK N   1      30.423  43.632  57.283  0.00  0.00     0.204 C 
BRANCH  12  16
HETATM   16  C   UNK N   1      27.619  46.729  58.234  0.00  0.00     0.198 C 
BRANCH  16  17
HETATM   17  O   UNK N   1      27.755  47.376  56.999  0.00  0.00    -0.398 OA
HETATM   18  H   UNK N   1      27.410  48.297  57.131  0.00  0.00     0.209 HD
ENDBRANCH  16  17
ENDBRANCH  12  16
BRANCH  13  19
HETATM   19  O   UNK N   1      30.499  47.232  58.312  0.00  0.00    -0.390 OA
HETATM   20  H   UNK N   1      31.025  47.724  57.628  0.00  0.00     0.210 HD
ENDBRANCH  13  19
BRANCH  14  21
HETATM   21  O   UNK N   1      32.218  45.225  57.152  0.00  0.00    -0.390 OA
HETATM   22  H   UNK N   1      32.582  46.058  57.546  0.00  0.00     0.210 HD
ENDBRANCH  14  21
BRANCH  15  23
HETATM   23  O   UNK N   1      31.299  42.545  57.458  0.00  0.00    -0.388 OA
HETATM   24  H   UNK N   1      31.009  42.050  58.269  0.00  0.00     0.210 HD
ENDBRANCH  15  23
ENDBRANCH   9  10
ENDBRANCH   4   9
BRANCH   6  25
HETATM   25  C   UNK N   1      29.582  42.021  52.997  0.00  0.00     0.124 C 
BRANCH  25  26
HETATM   26  C   UNK N   1      29.224  42.456  51.606  0.00  0.00     0.140 C 
HETATM   27  O   UNK N   1      28.883  43.610  51.392  0.00  0.00    -0.650 OA
BRANCH  26  28
HETATM   28  O   UNK N   1      29.251  41.559  50.596  0.00  0.00    -0.776 OA
HETATM   29  H   UNK N   1      28.653  41.636  49.839  0.00  0.00     0.167 HD
ENDBRANCH  26  28
ENDBRANCH  25  26
ENDBRANCH   6  25
BRANCH   1  30
HETATM   30  C   UNK N   1      26.398  41.440  52.153  0.00  0.00     0.291 C 
HETATM   31  O   UNK N   1      26.532  40.366  51.583  0.00  0.00    -0.260 OA
BRANCH  30  32
HETATM   32  O   UNK N   1      25.717  42.452  51.553  0.00  0.00    -0.323 OA
HETATM   33  C   UNK N   1      25.524  42.531  50.189  0.00  0.00     0.213 C 
ENDBRANCH  30  32
ENDBRANCH   1  30
TORSDOF 12
ENDMDL
MODEL 4
REMARK VINA RESULT:      -4.8      9.346     14.056
REMARK  12 active torsions:
REMARK  status: ('A' for Active; 'I' for Inactive)
REMARK    1  A    between atoms: C_2  and  O_3 
REMARK    2  A    between atoms: C_2  and  C_5 
REMARK    3  A    between atoms: C_8  and  O_9 
REMARK    4  A    between atoms: O_9  and  C_10 
REMARK    5  A    between atoms: C_12  and  C_22 
REMARK    6  A    between atoms: C_13  and  O_14 
REMARK    7  A    between atoms: C_16  and  O_17 
REMARK    8  A    between atoms: C_19  and  O_20 
REMARK    9  A    between atoms: C_22  and  O_23 
REMARK   10  A    between atoms: C_26  and  C_27 
REMARK   11  A    between atoms: C_27  and  C_28 
REMARK   12  A    between atoms: C_28  and  O_30 
ROOT
HETATM    1  C   UNK N   1      29.061  53.542  38.486  0.00  0.00     0.048 C 
HETATM    2  C   UNK N   1      30.357  53.759  38.832  0.00  0.00     0.152 C 
HETATM    3  O   UNK N   1      30.750  53.835  40.134  0.00  0.00    -0.327 OA
HETATM    4  C   UNK N   1      29.955  53.458  41.204  0.00  0.00     0.299 C 
HETATM    5  C   UNK N   1      28.523  53.867  40.900  0.00  0.00    -0.020 C 
HETATM    6  C   UNK N   1      27.983  53.368  39.563  0.00  0.00     0.070 C 
HETATM    7  C   UNK N   1      27.819  54.659  41.758  0.00  0.00    -0.023 C 
HETATM    8  C   UNK N   1      26.388  55.104  41.587  0.00  0.00     0.036 C 
ENDROOT
BRANCH   4   9
HETATM    9  O   UNK N   1      30.421  54.044  42.409  0.00  0.00    -0.324 OA
BRANCH   9  10
HETATM   10  C   UNK N   1      31.665  53.509  42.824  0.00  0.00     0.295 C 
HETATM   11  O   UNK N   1      31.500  52.160  43.236  0.00  0.00    -0.348 OA
HETATM   12  C   UNK N   1      32.747  51.588  43.601  0.00  0.00     0.179 C 
HETATM   13  C   UNK N   1      33.293  52.290  44.867  0.00  0.00     0.180 C 
HETATM   14  C   UNK N   1      33.480  53.786  44.556  0.00  0.00     0.183 C 
HETATM   15  C   UNK N   1      32.158  54.355  44.017  0.00  0.00     0.204 C 
BRANCH  12  16
HETATM   16  C   UNK N   1      32.534  50.091  43.846  0.00  0.00     0.198 C 
BRANCH  16  17
HETATM   17  O   UNK N   1      33.716  49.399  43.552  0.00  0.00    -0.398 OA
HETATM   18  H   UNK N   1      34.428  50.086  43.478  0.00  0.00     0.209 HD
ENDBRANCH  16  17
ENDBRANCH  12  16
BRANCH  13  19
HETATM   19  O   UNK N   1      34.520  51.721  45.243  0.00  0.00    -0.390 OA
HETATM   20  H   UNK N   1      34.341  51.145  46.032  0.00  0.00     0.210 HD
ENDBRANCH  13  19
BRANCH  14  21
HETATM   21  O   UNK N   1      33.855  54.490  45.713  0.00  0.00    -0.390 OA
HETATM   22  H   UNK N   1      33.975  55.438  45.448  0.00  0.00     0.210 HD
ENDBRANCH  14  21
BRANCH  15  23
HETATM   23  O   UNK N   1      32.300  55.709  43.660  0.00  0.00    -0.388 OA
HETATM   24  H   UNK N   1      31.526  55.953  43.088  0.00  0.00     0.210 HD
ENDBRANCH  15  23
ENDBRANCH   9  10
ENDBRANCH   4   9
BRANCH   6  25
HETATM   25  C   UNK N   1      27.558  51.886  39.718  0.00  0.00     0.124 C 
BRANCH  25  26
HETATM   26  C   UNK N   1      26.138  51.696  40.163  0.00  0.00     0.140 C 
HETATM   27  O   UNK N   1      25.230  51.719  39.346  0.00  0.00    -0.650 OA
BRANCH  26  28
HETATM   28  O   UNK N   1      25.864  51.528  41.475  0.00  0.00    -0.776 OA
HETATM   29  H   UNK N   1      26.444  51.005  42.046  0.00  0.00     0.167 HD
ENDBRANCH  26  28
ENDBRANCH  25  26
ENDBRANCH   6  25
BRANCH   1  30
HETATM   30  C   UNK N   1      28.683  53.549  37.043  0.00  0.00     0.291 C 
HETATM   31  O   UNK N   1      28.445  52.499  36.463  0.00  0.00    -0.260 OA
BRANCH  30  32
HETATM   32  O   UNK N   1      28.724  54.718  36.350  0.00  0.00    -0.323 OA
HETATM   33  C   UNK N   1      27.853  55.763  36.575  0.00  0.00     0.213 C 
ENDBRANCH  30  32
ENDBRANCH   1  30
TORSDOF 12
ENDMDL
MODEL 5
REMARK VINA RESULT:      -4.7     16.042     17.225
REMARK  12 active torsions:
REMARK  status: ('A' for Active; 'I' for Inactive)
REMARK    1  A    between atoms: C_2  and  O_3 
REMARK    2  A    between atoms: C_2  and  C_5 
REMARK    3  A    between atoms: C_8  and  O_9 
REMARK    4  A    between atoms: O_9  and  C_10 
REMARK    5  A    between atoms: C_12  and  C_22 
REMARK    6  A    between atoms: C_13  and  O_14 
REMARK    7  A    between atoms: C_16  and  O_17 
REMARK    8  A    between atoms: C_19  and  O_20 
REMARK    9  A    between atoms: C_22  and  O_23 
REMARK   10  A    between atoms: C_26  and  C_27 
REMARK   11  A    between atoms: C_27  and  C_28 
REMARK   12  A    between atoms: C_28  and  O_30 
ROOT
HETATM    1  C   UNK N   1      45.031  51.398  62.171  0.00  0.00     0.048 C 
HETATM    2  C   UNK N   1      44.691  52.702  61.996  0.00  0.00     0.152 C 
HETATM    3  O   UNK N   1      45.467  53.557  61.273  0.00  0.00    -0.327 OA
HETATM    4  C   UNK N   1      46.508  53.150  60.455  0.00  0.00     0.299 C 
HETATM    5  C   UNK N   1      47.221  51.990  61.133  0.00  0.00    -0.020 C 
HETATM    6  C   UNK N   1      46.315  50.835  61.548  0.00  0.00     0.070 C 
HETATM    7  C   UNK N   1      48.562  52.033  61.377  0.00  0.00    -0.023 C 
HETATM    8  C   UNK N   1      49.386  50.939  62.008  0.00  0.00     0.036 C 
ENDROOT
BRANCH   4   9
HETATM    9  O   UNK N   1      47.395  54.226  60.194  0.00  0.00    -0.324 OA
BRANCH   9  10
HETATM   10  C   UNK N   1      47.547  54.475  58.809  0.00  0.00     0.295 C 
HETATM   11  O   UNK N   1      48.848  54.090  58.385  0.00  0.00    -0.348 OA
HETATM   12  C   UNK N   1      49.000  54.279  56.987  0.00  0.00     0.179 C 
HETATM   13  C   UNK N   1      48.944  55.788  56.655  0.00  0.00     0.180 C 
HETATM   14  C   UNK N   1      47.579  56.339  57.106  0.00  0.00     0.183 C 
HETATM   15  C   UNK N   1      47.364  55.992  58.588  0.00  0.00     0.204 C 
BRANCH  12  16
HETATM   16  C   UNK N   1      50.340  53.667  56.565  0.00  0.00     0.198 C 
BRANCH  16  17
HETATM   17  O   UNK N   1      50.150  52.321  56.225  0.00  0.00    -0.398 OA
HETATM   18  H   UNK N   1      49.313  52.038  56.675  0.00  0.00     0.209 HD
ENDBRANCH  16  17
ENDBRANCH  12  16
BRANCH  13  19
HETATM   19  O   UNK N   1      49.108  55.984  55.274  0.00  0.00    -0.390 OA
HETATM   20  H   UNK N   1      49.501  55.149  54.909  0.00  0.00     0.210 HD
ENDBRANCH  13  19
BRANCH  14  21
HETATM   21  O   UNK N   1      47.528  57.733  56.940  0.00  0.00    -0.390 OA
HETATM   22  H   UNK N   1      48.464  58.054  56.884  0.00  0.00     0.210 HD
ENDBRANCH  14  21
BRANCH  15  23
HETATM   23  O   UNK N   1      46.099  56.423  59.028  0.00  0.00    -0.388 OA
HETATM   24  H   UNK N   1      45.688  55.680  59.543  0.00  0.00     0.210 HD
ENDBRANCH  15  23
ENDBRANCH   9  10
ENDBRANCH   4   9
BRANCH   6  25
HETATM   25  C   UNK N   1      46.016  49.962  60.304  0.00  0.00     0.124 C 
BRANCH  25  26
HETATM   26  C   UNK N   1      46.431  48.527  60.444  0.00  0.00     0.140 C 
HETATM   27  O   UNK N   1      47.120  48.000  59.583  0.00  0.00    -0.650 OA
BRANCH  26  28
HETATM   28  O   UNK N   1      46.015  47.811  61.511  0.00  0.00    -0.776 OA
HETATM   29  H   UNK N   1      45.378  48.174  62.142  0.00  0.00     0.167 HD
ENDBRANCH  26  28
ENDBRANCH  25  26
ENDBRANCH   6  25
BRANCH   1  30
HETATM   30  C   UNK N   1      44.180  50.535  63.040  0.00  0.00     0.291 C 
HETATM   31  O   UNK N   1      44.661  49.562  63.603  0.00  0.00    -0.260 OA
BRANCH  30  32
HETATM   32  O   UNK N   1      42.842  50.769  63.104  0.00  0.00    -0.323 OA
HETATM   33  C   UNK N   1      41.983  50.540  62.050  0.00  0.00     0.213 C 
ENDBRANCH  30  32
ENDBRANCH   1  30
TORSDOF 12
ENDMDL
MODEL 6
REMARK VINA RESULT:      -4.7     14.341     16.419
REMARK  12 active torsions:
REMARK  status: ('A' for Active; 'I' for Inactive)
REMARK    1  A    between atoms: C_2  and  O_3 
REMARK    2  A    between atoms: C_2  and  C_5 
REMARK    3  A    between atoms: C_8  and  O_9 
REMARK    4  A    between atoms: O_9  and  C_10 
REMARK    5  A    between atoms: C_12  and  C_22 
REMARK    6  A    between atoms: C_13  and  O_14 
REMARK    7  A    between atoms: C_16  and  O_17 
REMARK    8  A    between atoms: C_19  and  O_20 
REMARK    9  A    between atoms: C_22  and  O_23 
REMARK   10  A    between atoms: C_26  and  C_27 
REMARK   11  A    between atoms: C_27  and  C_28 
REMARK   12  A    between atoms: C_28  and  O_30 
ROOT
HETATM    1  C   UNK N   1      29.963  42.927  58.088  0.00  0.00     0.048 C 
HETATM    2  C   UNK N   1      29.150  43.834  57.486  0.00  0.00     0.152 C 
HETATM    3  O   UNK N   1      29.318  45.175  57.656  0.00  0.00    -0.327 OA
HETATM    4  C   UNK N   1      30.444  45.745  58.224  0.00  0.00     0.299 C 
HETATM    5  C   UNK N   1      30.907  44.851  59.364  0.00  0.00    -0.020 C 
HETATM    6  C   UNK N   1      31.118  43.389  58.986  0.00  0.00     0.070 C 
HETATM    7  C   UNK N   1      31.068  45.343  60.625  0.00  0.00    -0.023 C 
HETATM    8  C   UNK N   1      31.552  44.570  61.826  0.00  0.00     0.036 C 
ENDROOT
BRANCH   4   9
HETATM    9  O   UNK N   1      30.170  47.063  58.674  0.00  0.00    -0.324 OA
BRANCH   9  10
HETATM   10  C   UNK N   1      29.487  47.833  57.701  0.00  0.00     0.295 C 
HETATM   11  O   UNK N   1      30.265  48.966  57.343  0.00  0.00    -0.348 OA
HETATM   12  C   UNK N   1      29.622  49.719  56.327  0.00  0.00     0.179 C 
HETATM   13  C   UNK N   1      28.317  50.337  56.881  0.00  0.00     0.180 C 
HETATM   14  C   UNK N   1      27.393  49.197  57.344  0.00  0.00     0.183 C 
HETATM   15  C   UNK N   1      28.157  48.301  58.331  0.00  0.00     0.204 C 
BRANCH  12  16
HETATM   16  C   UNK N   1      30.592  50.805  55.851  0.00  0.00     0.198 C 
BRANCH  16  17
HETATM   17  O   UNK N   1      31.899  50.454  56.213  0.00  0.00    -0.398 OA
HETATM   18  H   UNK N   1      31.823  49.625  56.752  0.00  0.00     0.209 HD
ENDBRANCH  16  17
ENDBRANCH  12  16
BRANCH  13  19
HETATM   19  O   UNK N   1      27.682  51.096  55.885  0.00  0.00    -0.390 OA
HETATM   20  H   UNK N   1      28.205  51.934  55.783  0.00  0.00     0.210 HD
ENDBRANCH  13  19
BRANCH  14  21
HETATM   21  O   UNK N   1      26.246  49.712  57.971  0.00  0.00    -0.390 OA
HETATM   22  H   UNK N   1      26.226  49.339  58.890  0.00  0.00     0.210 HD
ENDBRANCH  14  21
BRANCH  15  23
HETATM   23  O   UNK N   1      27.370  47.207  58.734  0.00  0.00    -0.388 OA
HETATM   24  H   UNK N   1      27.917  46.649  59.347  0.00  0.00     0.210 HD
ENDBRANCH  15  23
ENDBRANCH   9  10
ENDBRANCH   4   9
BRANCH   6  25
HETATM   25  C   UNK N   1      32.489  43.247  58.278  0.00  0.00     0.124 C 
BRANCH  25  26
HETATM   26  C   UNK N   1      33.565  42.646  59.134  0.00  0.00     0.140 C 
HETATM   27  O   UNK N   1      33.269  41.970  60.109  0.00  0.00    -0.650 OA
BRANCH  26  28
HETATM   28  O   UNK N   1      34.863  42.879  58.841  0.00  0.00    -0.776 OA
HETATM   29  H   UNK N   1      35.470  43.241  59.501  0.00  0.00     0.167 HD
ENDBRANCH  26  28
ENDBRANCH  25  26
ENDBRANCH   6  25
BRANCH   1  30
HETATM   30  C   UNK N   1      29.676  41.472  57.926  0.00  0.00     0.291 C 
HETATM   31  O   UNK N   1      30.189  40.655  58.678  0.00  0.00    -0.260 OA
BRANCH  30  32
HETATM   32  O   UNK N   1      28.940  41.053  56.862  0.00  0.00    -0.323 OA
HETATM   33  C   UNK N   1      29.473  40.352  55.801  0.00  0.00     0.213 C 
ENDBRANCH  30  32
ENDBRANCH   1  30
TORSDOF 12
ENDMDL
MODEL 7
REMARK VINA RESULT:      -4.7     15.817     17.507
REMARK  12 active torsions:
REMARK  status: ('A' for Active; 'I' for Inactive)
REMARK    1  A    between atoms: C_2  and  O_3 
REMARK    2  A    between atoms: C_2  and  C_5 
REMARK    3  A    between atoms: C_8  and  O_9 
REMARK    4  A    between atoms: O_9  and  C_10 
REMARK    5  A    between atoms: C_12  and  C_22 
REMARK    6  A    between atoms: C_13  and  O_14 
REMARK    7  A    between atoms: C_16  and  O_17 
REMARK    8  A    between atoms: C_19  and  O_20 
REMARK    9  A    between atoms: C_22  and  O_23 
REMARK   10  A    between atoms: C_26  and  C_27 
REMARK   11  A    between atoms: C_27  and  C_28 
REMARK   12  A    between atoms: C_28  and  O_30 
ROOT
HETATM    1  C   UNK N   1      45.677  51.809  61.935  0.00  0.00     0.048 C 
HETATM    2  C   UNK N   1      45.988  53.117  61.736  0.00  0.00     0.152 C 
HETATM    3  O   UNK N   1      47.189  53.500  61.220  0.00  0.00    -0.327 OA
HETATM    4  C   UNK N   1      48.085  52.630  60.623  0.00  0.00     0.299 C 
HETATM    5  C   UNK N   1      48.063  51.320  61.395  0.00  0.00    -0.020 C 
HETATM    6  C   UNK N   1      46.679  50.705  61.573  0.00  0.00     0.070 C 
HETATM    7  C   UNK N   1      49.206  50.788  61.913  0.00  0.00    -0.023 C 
HETATM    8  C   UNK N   1      49.320  49.485  62.664  0.00  0.00     0.036 C 
ENDROOT
BRANCH   4   9
HETATM    9  O   UNK N   1      49.387  53.193  60.588  0.00  0.00    -0.324 OA
BRANCH   9  10
HETATM   10  C   UNK N   1      49.746  53.641  59.294  0.00  0.00     0.295 C 
HETATM   11  O   UNK N   1      48.662  54.345  58.704  0.00  0.00    -0.348 OA
HETATM   12  C   UNK N   1      49.023  54.852  57.429  0.00  0.00     0.179 C 
HETATM   13  C   UNK N   1      49.268  53.679  56.451  0.00  0.00     0.180 C 
HETATM   14  C   UNK N   1      50.411  52.809  57.005  0.00  0.00     0.183 C 
HETATM   15  C   UNK N   1      50.071  52.393  58.445  0.00  0.00     0.204 C 
BRANCH  12  16
HETATM   16  C   UNK N   1      47.890  55.758  56.936  0.00  0.00     0.198 C 
BRANCH  16  17
HETATM   17  O   UNK N   1      48.321  56.470  55.809  0.00  0.00    -0.398 OA
HETATM   18  H   UNK N   1      47.499  56.771  55.342  0.00  0.00     0.209 HD
ENDBRANCH  16  17
ENDBRANCH  12  16
BRANCH  13  19
HETATM   19  O   UNK N   1      49.612  54.173  55.182  0.00  0.00    -0.390 OA
HETATM   20  H   UNK N   1      49.228  55.086  55.115  0.00  0.00     0.210 HD
ENDBRANCH  13  19
BRANCH  14  21
HETATM   21  O   UNK N   1      50.587  51.661  56.216  0.00  0.00    -0.390 OA
HETATM   22  H   UNK N   1      50.220  51.866  55.318  0.00  0.00     0.210 HD
ENDBRANCH  14  21
BRANCH  15  23
HETATM   23  O   UNK N   1      51.119  51.647  59.015  0.00  0.00    -0.388 OA
HETATM   24  H   UNK N   1      51.943  51.834  58.493  0.00  0.00     0.210 HD
ENDBRANCH  15  23
ENDBRANCH   9  10
ENDBRANCH   4   9
BRANCH   6  25
HETATM   25  C   UNK N   1      46.283  49.975  60.265  0.00  0.00     0.124 C 
BRANCH  25  26
HETATM   26  C   UNK N   1      46.648  48.519  60.238  0.00  0.00     0.140 C 
HETATM   27  O   UNK N   1      46.106  47.736  61.004  0.00  0.00    -0.650 OA
BRANCH  26  28
HETATM   28  O   UNK N   1      47.598  48.084  59.383  0.00  0.00    -0.776 OA
HETATM   29  H   UNK N   1      47.388  47.458  58.675  0.00  0.00     0.167 HD
ENDBRANCH  26  28
ENDBRANCH  25  26
ENDBRANCH   6  25
BRANCH   1  30
HETATM   30  C   UNK N   1      44.377  51.460  62.579  0.00  0.00     0.291 C 
HETATM   31  O   UNK N   1      44.306  51.331  63.793  0.00  0.00    -0.260 OA
BRANCH  30  32
HETATM   32  O   UNK N   1      43.304  51.168  61.796  0.00  0.00    -0.323 OA
HETATM   33  C   UNK N   1      42.096  50.734  62.300  0.00  0.00     0.213 C 
ENDBRANCH  30  32
ENDBRANCH   1  30
TORSDOF 12
ENDMDL
MODEL 8
REMARK VINA RESULT:      -4.4      9.961     14.740
REMARK  12 active torsions:
REMARK  status: ('A' for Active; 'I' for Inactive)
REMARK    1  A    between atoms: C_2  and  O_3 
REMARK    2  A    between atoms: C_2  and  C_5 
REMARK    3  A    between atoms: C_8  and  O_9 
REMARK    4  A    between atoms: O_9  and  C_10 
REMARK    5  A    between atoms: C_12  and  C_22 
REMARK    6  A    between atoms: C_13  and  O_14 
REMARK    7  A    between atoms: C_16  and  O_17 
REMARK    8  A    between atoms: C_19  and  O_20 
REMARK    9  A    between atoms: C_22  and  O_23 
REMARK   10  A    between atoms: C_26  and  C_27 
REMARK   11  A    between atoms: C_27  and  C_28 
REMARK   12  A    between atoms: C_28  and  O_30 
ROOT
HETATM    1  C   UNK N   1      27.757  56.030  40.808  0.00  0.00     0.048 C 
HETATM    2  C   UNK N   1      27.782  55.198  41.882  0.00  0.00     0.152 C 
HETATM    3  O   UNK N   1      28.799  54.314  42.083  0.00  0.00    -0.327 OA
HETATM    4  C   UNK N   1      29.996  54.343  41.388  0.00  0.00     0.299 C 
HETATM    5  C   UNK N   1      29.701  54.725  39.946  0.00  0.00    -0.020 C 
HETATM    6  C   UNK N   1      28.891  56.007  39.775  0.00  0.00     0.070 C 
HETATM    7  C   UNK N   1      30.104  53.935  38.911  0.00  0.00    -0.023 C 
HETATM    8  C   UNK N   1      29.903  54.220  37.443  0.00  0.00     0.036 C 
ENDROOT
BRANCH   4   9
HETATM    9  O   UNK N   1      30.658  53.091  41.471  0.00  0.00    -0.324 OA
BRANCH   9  10
HETATM   10  C   UNK N   1      31.246  52.875  42.741  0.00  0.00     0.295 C 
HETATM   11  O   UNK N   1      31.974  54.027  43.142  0.00  0.00    -0.348 OA
HETATM   12  C   UNK N   1      32.522  53.851  44.439  0.00  0.00     0.179 C 
HETATM   13  C   UNK N   1      33.596  52.738  44.405  0.00  0.00     0.180 C 
HETATM   14  C   UNK N   1      32.932  51.429  43.941  0.00  0.00     0.183 C 
HETATM   15  C   UNK N   1      32.212  51.678  42.606  0.00  0.00     0.204 C 
BRANCH  12  16
HETATM   16  C   UNK N   1      33.122  55.186  44.891  0.00  0.00     0.198 C 
BRANCH  16  17
HETATM   17  O   UNK N   1      34.407  55.326  44.351  0.00  0.00    -0.398 OA
HETATM   18  H   UNK N   1      34.972  54.648  44.805  0.00  0.00     0.209 HD
ENDBRANCH  16  17
ENDBRANCH  12  16
BRANCH  13  19
HETATM   19  O   UNK N   1      34.154  52.567  45.682  0.00  0.00    -0.390 OA
HETATM   20  H   UNK N   1      33.639  51.844  46.127  0.00  0.00     0.210 HD
ENDBRANCH  13  19
BRANCH  14  21
HETATM   21  O   UNK N   1      33.891  50.418  43.773  0.00  0.00    -0.390 OA
HETATM   22  H   UNK N   1      34.717  50.722  44.231  0.00  0.00     0.210 HD
ENDBRANCH  14  21
BRANCH  15  23
HETATM   23  O   UNK N   1      31.536  50.522  42.174  0.00  0.00    -0.388 OA
HETATM   24  H   UNK N   1      31.845  49.764  42.735  0.00  0.00     0.210 HD
ENDBRANCH  15  23
ENDBRANCH   9  10
ENDBRANCH   4   9
BRANCH   6  25
HETATM   25  C   UNK N   1      29.839  57.222  39.934  0.00  0.00     0.124 C 
BRANCH  25  26
HETATM   26  C   UNK N   1      29.524  58.373  39.023  0.00  0.00     0.140 C 
HETATM   27  O   UNK N   1      29.548  59.518  39.449  0.00  0.00    -0.650 OA
BRANCH  26  28
HETATM   28  O   UNK N   1      29.183  58.135  37.737  0.00  0.00    -0.776 OA
HETATM   29  H   UNK N   1      29.031  58.861  37.116  0.00  0.00     0.167 HD
ENDBRANCH  26  28
ENDBRANCH  25  26
ENDBRANCH   6  25
BRANCH   1  30
HETATM   30  C   UNK N   1      26.576  56.919  40.603  0.00  0.00     0.291 C 
HETATM   31  O   UNK N   1      25.598  56.512  39.993  0.00  0.00    -0.260 OA
BRANCH  30  32
HETATM   32  O   UNK N   1      26.646  58.219  40.994  0.00  0.00    -0.323 OA
HETATM   33  C   UNK N   1      27.276  58.628  42.151  0.00  0.00     0.213 C 
ENDBRANCH  30  32
ENDBRANCH   1  30
TORSDOF 12
ENDMDL
MODEL 9
REMARK VINA RESULT:      -4.4      9.457     14.334
REMARK  12 active torsions:
REMARK  status: ('A' for Active; 'I' for Inactive)
REMARK    1  A    between atoms: C_2  and  O_3 
REMARK    2  A    between atoms: C_2  and  C_5 
REMARK    3  A    between atoms: C_8  and  O_9 
REMARK    4  A    between atoms: O_9  and  C_10 
REMARK    5  A    between atoms: C_12  and  C_22 
REMARK    6  A    between atoms: C_13  and  O_14 
REMARK    7  A    between atoms: C_16  and  O_17 
REMARK    8  A    between atoms: C_19  and  O_20 
REMARK    9  A    between atoms: C_22  and  O_23 
REMARK   10  A    between atoms: C_26  and  C_27 
REMARK   11  A    between atoms: C_27  and  C_28 
REMARK   12  A    between atoms: C_28  and  O_30 
ROOT
HETATM    1  C   UNK N   1      29.722  55.831  38.765  0.00  0.00     0.048 C 
HETATM    2  C   UNK N   1      30.686  56.154  39.667  0.00  0.00     0.152 C 
HETATM    3  O   UNK N   1      30.891  55.419  40.795  0.00  0.00    -0.327 OA
HETATM    4  C   UNK N   1      30.339  54.167  41.011  0.00  0.00     0.299 C 
HETATM    5  C   UNK N   1      28.929  54.164  40.442  0.00  0.00    -0.020 C 
HETATM    6  C   UNK N   1      28.824  54.608  38.987  0.00  0.00     0.070 C 
HETATM    7  C   UNK N   1      27.858  53.828  41.216  0.00  0.00    -0.023 C 
HETATM    8  C   UNK N   1      26.421  53.754  40.762  0.00  0.00     0.036 C 
ENDROOT
BRANCH   4   9
HETATM    9  O   UNK N   1      30.345  53.846  42.393  0.00  0.00    -0.324 OA
BRANCH   9  10
HETATM   10  C   UNK N   1      31.601  53.358  42.828  0.00  0.00     0.295 C 
HETATM   11  O   UNK N   1      31.459  52.046  43.354  0.00  0.00    -0.348 OA
HETATM   12  C   UNK N   1      32.717  51.519  43.742  0.00  0.00     0.179 C 
HETATM   13  C   UNK N   1      33.277  52.329  44.936  0.00  0.00     0.180 C 
HETATM   14  C   UNK N   1      33.442  53.795  44.499  0.00  0.00     0.183 C 
HETATM   15  C   UNK N   1      32.105  54.305  43.939  0.00  0.00     0.204 C 
BRANCH  12  16
HETATM   16  C   UNK N   1      32.525  50.045  44.113  0.00  0.00     0.198 C 
BRANCH  16  17
HETATM   17  O   UNK N   1      31.732  49.421  43.142  0.00  0.00    -0.398 OA
HETATM   18  H   UNK N   1      31.875  49.927  42.301  0.00  0.00     0.209 HD
ENDBRANCH  16  17
ENDBRANCH  12  16
BRANCH  13  19
HETATM   19  O   UNK N   1      34.517  51.804  45.335  0.00  0.00    -0.390 OA
HETATM   20  H   UNK N   1      35.200  52.176  44.718  0.00  0.00     0.210 HD
ENDBRANCH  13  19
BRANCH  14  21
HETATM   21  O   UNK N   1      33.830  54.596  45.586  0.00  0.00    -0.390 OA
HETATM   22  H   UNK N   1      33.318  55.442  45.520  0.00  0.00     0.210 HD
ENDBRANCH  14  21
BRANCH  15  23
HETATM   23  O   UNK N   1      32.226  55.626  43.468  0.00  0.00    -0.388 OA
HETATM   24  H   UNK N   1      32.284  56.224  44.259  0.00  0.00     0.210 HD
ENDBRANCH  15  23
ENDBRANCH   9  10
ENDBRANCH   4   9
BRANCH   6  25
HETATM   25  C   UNK N   1      29.227  53.424  38.072  0.00  0.00     0.124 C 
BRANCH  25  26
HETATM   26  C   UNK N   1      28.073  52.589  37.601  0.00  0.00     0.140 C 
HETATM   27  O   UNK N   1      27.509  52.857  36.550  0.00  0.00    -0.650 OA
BRANCH  26  28
HETATM   28  O   UNK N   1      27.641  51.556  38.357  0.00  0.00    -0.776 OA
HETATM   29  H   UNK N   1      26.735  51.223  38.282  0.00  0.00     0.167 HD
ENDBRANCH  26  28
ENDBRANCH  25  26
ENDBRANCH   6  25
BRANCH   1  30
HETATM   30  C   UNK N   1      29.497  56.723  37.590  0.00  0.00     0.291 C 
HETATM   31  O   UNK N   1      29.929  56.412  36.489  0.00  0.00    -0.260 OA
BRANCH  30  32
HETATM   32  O   UNK N   1      28.915  57.937  37.779  0.00  0.00    -0.323 OA
HETATM   33  C   UNK N   1      27.771  58.338  37.122  0.00  0.00     0.213 C 
ENDBRANCH  30  32
ENDBRANCH   1  30
TORSDOF 12
ENDMDL
