MODEL 1
REMARK VINA RESULT:      -7.8      0.000      0.000
REMARK  9 active torsions:
REMARK  status: ('A' for Active; 'I' for Inactive)
REMARK    1  A    between atoms: C_2  and  O_3 
REMARK    2  A    between atoms: C_2  and  C_14 
REMARK    3  A    between atoms: O_3  and  C_4 
REMARK    4  A    between atoms: C_4  and  C_5 
REMARK    5  A    between atoms: C_5  and  C_6 
REMARK    6  A    between atoms: C_9  and  O_10 
REMARK    7  A    between atoms: C_15  and  C_16 
REMARK    8  A    between atoms: C_18  and  O_19 
REMARK    9  A    between atoms: C_21  and  O_22 
ROOT
HETATM    1  O   UNK N   1      41.073  44.911  47.112  0.00  0.00    -0.260 OA
HETATM    2  C   UNK N   1      41.604  46.012  47.112  0.00  0.00     0.282 C 
ENDROOT
BRANCH   2   3
HETATM    3  O   UNK N   1      42.472  46.363  48.101  0.00  0.00    -0.318 OA
BRANCH   3   4
HETATM    4  C   UNK N   1      42.096  46.868  49.339  0.00  0.00     0.183 C 
BRANCH   4   5
HETATM    5  C   UNK N   1      42.864  46.132  50.435  0.00  0.00     0.065 C 
BRANCH   5   6
HETATM    6  C   UNK N   1      41.948  45.264  51.257  0.00  0.00    -0.056 A 
HETATM    7  C   UNK N   1      42.039  45.261  52.659  0.00  0.00     0.010 A 
HETATM    8  C   UNK N   1      41.181  44.458  53.418  0.00  0.00     0.037 A 
HETATM    9  C   UNK N   1      40.238  43.642  52.784  0.00  0.00     0.065 A 
HETATM   10  C   UNK N   1      40.150  43.637  51.385  0.00  0.00     0.037 A 
HETATM   11  C   UNK N   1      40.994  44.451  50.626  0.00  0.00     0.010 A 
BRANCH   9  12
HETATM   12  O   UNK N   1      39.422  42.865  53.526  0.00  0.00    -0.361 OA
HETATM   13  H   UNK N   1      39.477  41.899  53.499  0.00  0.00     0.217 HD
ENDBRANCH   9  12
ENDBRANCH   5   6
ENDBRANCH   4   5
ENDBRANCH   3   4
ENDBRANCH   2   3
BRANCH   2  14
HETATM   14  C   UNK N   1      41.295  46.950  46.009  0.00  0.00     0.083 C 
HETATM   15  C   UNK N   1      40.318  47.873  46.100  0.00  0.00     0.017 C 
BRANCH  15  16
HETATM   16  C   UNK N   1      39.961  48.829  45.004  0.00  0.00    -0.033 A 
HETATM   17  C   UNK N   1      38.878  48.515  44.162  0.00  0.00     0.051 A 
HETATM   18  C   UNK N   1      38.511  49.374  43.114  0.00  0.00     0.102 A 
HETATM   19  C   UNK N   1      39.229  50.557  42.895  0.00  0.00     0.099 A 
HETATM   20  C   UNK N   1      40.305  50.881  43.726  0.00  0.00     0.040 A 
HETATM   21  C   UNK N   1      40.671  50.030  44.773  0.00  0.00     0.014 A 
BRANCH  18  22
HETATM   22  O   UNK N   1      37.471  49.060  42.312  0.00  0.00    -0.353 OA
HETATM   23  C   UNK N   1      36.531  48.125  42.685  0.00  0.00     0.210 C 
ENDBRANCH  18  22
BRANCH  19  24
HETATM   24  O   UNK N   1      38.874  51.377  41.882  0.00  0.00    -0.358 OA
HETATM   25  H   UNK N   1      38.054  51.892  41.908  0.00  0.00     0.218 HD
ENDBRANCH  19  24
ENDBRANCH  15  16
ENDBRANCH   2  14
TORSDOF 9
ENDMDL
MODEL 2
REMARK VINA RESULT:      -7.5      1.317      9.175
REMARK  9 active torsions:
REMARK  status: ('A' for Active; 'I' for Inactive)
REMARK    1  A    between atoms: C_2  and  O_3 
REMARK    2  A    between atoms: C_2  and  C_14 
REMARK    3  A    between atoms: O_3  and  C_4 
REMARK    4  A    between atoms: C_4  and  C_5 
REMARK    5  A    between atoms: C_5  and  C_6 
REMARK    6  A    between atoms: C_9  and  O_10 
REMARK    7  A    between atoms: C_15  and  C_16 
REMARK    8  A    between atoms: C_18  and  O_19 
REMARK    9  A    between atoms: C_21  and  O_22 
ROOT
HETATM    1  O   UNK N   1      40.518  44.950  45.279  0.00  0.00    -0.260 OA
HETATM    2  C   UNK N   1      41.101  45.811  45.921  0.00  0.00     0.282 C 
ENDROOT
BRANCH   2   3
HETATM    3  O   UNK N   1      41.358  47.031  45.372  0.00  0.00    -0.318 OA
BRANCH   3   4
HETATM    4  C   UNK N   1      41.272  48.238  46.054  0.00  0.00     0.183 C 
BRANCH   4   5
HETATM    5  C   UNK N   1      39.810  48.675  46.115  0.00  0.00     0.065 C 
BRANCH   5   6
HETATM    6  C   UNK N   1      39.309  49.100  44.759  0.00  0.00    -0.056 A 
HETATM    7  C   UNK N   1      38.201  48.460  44.177  0.00  0.00     0.010 A 
HETATM    8  C   UNK N   1      37.736  48.862  42.921  0.00  0.00     0.037 A 
HETATM    9  C   UNK N   1      38.381  49.894  42.229  0.00  0.00     0.065 A 
HETATM   10  C   UNK N   1      39.491  50.529  42.805  0.00  0.00     0.037 A 
HETATM   11  C   UNK N   1      39.947  50.139  44.067  0.00  0.00     0.010 A 
BRANCH   9  12
HETATM   12  O   UNK N   1      37.930  50.268  41.015  0.00  0.00    -0.361 OA
HETATM   13  H   UNK N   1      38.531  50.579  40.323  0.00  0.00     0.217 HD
ENDBRANCH   9  12
ENDBRANCH   5   6
ENDBRANCH   4   5
ENDBRANCH   3   4
ENDBRANCH   2   3
BRANCH   2  14
HETATM   14  C   UNK N   1      41.511  45.506  47.311  0.00  0.00     0.083 C 
HETATM   15  C   UNK N   1      40.628  45.451  48.327  0.00  0.00     0.017 C 
BRANCH  15  16
HETATM   16  C   UNK N   1      41.002  45.163  49.749  0.00  0.00    -0.033 A 
HETATM   17  C   UNK N   1      40.262  44.196  50.456  0.00  0.00     0.051 A 
HETATM   18  C   UNK N   1      40.567  43.897  51.793  0.00  0.00     0.102 A 
HETATM   19  C   UNK N   1      41.614  44.566  52.439  0.00  0.00     0.099 A 
HETATM   20  C   UNK N   1      42.357  45.526  51.746  0.00  0.00     0.040 A 
HETATM   21  C   UNK N   1      42.059  45.825  50.413  0.00  0.00     0.014 A 
BRANCH  18  22
HETATM   22  O   UNK N   1      39.849  42.969  52.461  0.00  0.00    -0.353 OA
HETATM   23  C   UNK N   1      39.535  43.123  53.793  0.00  0.00     0.210 C 
ENDBRANCH  18  22
BRANCH  19  24
HETATM   24  O   UNK N   1      41.900  44.277  53.727  0.00  0.00    -0.358 OA
HETATM   25  H   UNK N   1      42.795  44.041  54.009  0.00  0.00     0.218 HD
ENDBRANCH  19  24
ENDBRANCH  15  16
ENDBRANCH   2  14
TORSDOF 9
ENDMDL
MODEL 3
REMARK VINA RESULT:      -7.4      3.055      8.280
REMARK  9 active torsions:
REMARK  status: ('A' for Active; 'I' for Inactive)
REMARK    1  A    between atoms: C_2  and  O_3 
REMARK    2  A    between atoms: C_2  and  C_14 
REMARK    3  A    between atoms: O_3  and  C_4 
REMARK    4  A    between atoms: C_4  and  C_5 
REMARK    5  A    between atoms: C_5  and  C_6 
REMARK    6  A    between atoms: C_9  and  O_10 
REMARK    7  A    between atoms: C_15  and  C_16 
REMARK    8  A    between atoms: C_18  and  O_19 
REMARK    9  A    between atoms: C_21  and  O_22 
ROOT
HETATM    1  O   UNK N   1      43.192  48.133  46.980  0.00  0.00    -0.260 OA
HETATM    2  C   UNK N   1      42.182  47.683  47.500  0.00  0.00     0.282 C 
ENDROOT
BRANCH   2   3
HETATM    3  O   UNK N   1      40.995  47.693  46.832  0.00  0.00    -0.318 OA
BRANCH   3   4
HETATM    4  C   UNK N   1      40.705  46.904  45.727  0.00  0.00     0.183 C 
BRANCH   4   5
HETATM    5  C   UNK N   1      40.271  45.518  46.201  0.00  0.00     0.065 C 
BRANCH   5   6
HETATM    6  C   UNK N   1      41.269  44.464  45.800  0.00  0.00    -0.056 A 
HETATM    7  C   UNK N   1      41.603  43.426  46.685  0.00  0.00     0.010 A 
HETATM    8  C   UNK N   1      42.527  42.446  46.305  0.00  0.00     0.037 A 
HETATM    9  C   UNK N   1      43.135  42.504  45.046  0.00  0.00     0.065 A 
HETATM   10  C   UNK N   1      42.810  43.544  44.164  0.00  0.00     0.037 A 
HETATM   11  C   UNK N   1      41.875  44.513  44.535  0.00  0.00     0.010 A 
BRANCH   9  12
HETATM   12  O   UNK N   1      44.030  41.559  44.694  0.00  0.00    -0.361 OA
HETATM   13  H   UNK N   1      44.457  41.563  43.825  0.00  0.00     0.217 HD
ENDBRANCH   9  12
ENDBRANCH   5   6
ENDBRANCH   4   5
ENDBRANCH   3   4
ENDBRANCH   2   3
BRANCH   2  14
HETATM   14  C   UNK N   1      42.276  47.117  48.866  0.00  0.00     0.083 C 
HETATM   15  C   UNK N   1      41.556  46.047  49.254  0.00  0.00     0.017 C 
BRANCH  15  16
HETATM   16  C   UNK N   1      41.609  45.453  50.628  0.00  0.00    -0.033 A 
HETATM   17  C   UNK N   1      40.841  44.304  50.894  0.00  0.00     0.051 A 
HETATM   18  C   UNK N   1      40.850  43.715  52.169  0.00  0.00     0.102 A 
HETATM   19  C   UNK N   1      41.624  44.274  53.193  0.00  0.00     0.099 A 
HETATM   20  C   UNK N   1      42.392  45.415  52.939  0.00  0.00     0.040 A 
HETATM   21  C   UNK N   1      42.389  46.002  51.671  0.00  0.00     0.014 A 
BRANCH  18  22
HETATM   22  O   UNK N   1      40.108  42.613  52.412  0.00  0.00    -0.353 OA
HETATM   23  C   UNK N   1      39.134  42.601  53.384  0.00  0.00     0.210 C 
ENDBRANCH  18  22
BRANCH  19  24
HETATM   24  O   UNK N   1      41.624  43.707  54.418  0.00  0.00    -0.358 OA
HETATM   25  H   UNK N   1      41.685  44.238  55.225  0.00  0.00     0.218 HD
ENDBRANCH  19  24
ENDBRANCH  15  16
ENDBRANCH   2  14
TORSDOF 9
ENDMDL
MODEL 4
REMARK VINA RESULT:      -7.3      2.503      5.198
REMARK  9 active torsions:
REMARK  status: ('A' for Active; 'I' for Inactive)
REMARK    1  A    between atoms: C_2  and  O_3 
REMARK    2  A    between atoms: C_2  and  C_14 
REMARK    3  A    between atoms: O_3  and  C_4 
REMARK    4  A    between atoms: C_4  and  C_5 
REMARK    5  A    between atoms: C_5  and  C_6 
REMARK    6  A    between atoms: C_9  and  O_10 
REMARK    7  A    between atoms: C_15  and  C_16 
REMARK    8  A    between atoms: C_18  and  O_19 
REMARK    9  A    between atoms: C_21  and  O_22 
ROOT
HETATM    1  O   UNK N   1      42.701  45.619  52.895  0.00  0.00    -0.260 OA
HETATM    2  C   UNK N   1      42.186  45.266  51.845  0.00  0.00     0.282 C 
ENDROOT
BRANCH   2   3
HETATM    3  O   UNK N   1      41.234  44.292  51.833  0.00  0.00    -0.318 OA
BRANCH   3   4
HETATM    4  C   UNK N   1      41.127  43.305  50.862  0.00  0.00     0.183 C 
BRANCH   4   5
HETATM    5  C   UNK N   1      39.852  43.535  50.053  0.00  0.00     0.065 C 
BRANCH   5   6
HETATM    6  C   UNK N   1      40.165  43.853  48.615  0.00  0.00    -0.056 A 
HETATM    7  C   UNK N   1      39.215  44.496  47.804  0.00  0.00     0.010 A 
HETATM    8  C   UNK N   1      39.514  44.794  46.470  0.00  0.00     0.037 A 
HETATM    9  C   UNK N   1      40.757  44.439  45.932  0.00  0.00     0.065 A 
HETATM   10  C   UNK N   1      41.704  43.791  46.737  0.00  0.00     0.037 A 
HETATM   11  C   UNK N   1      41.412  43.507  48.073  0.00  0.00     0.010 A 
BRANCH   9  12
HETATM   12  O   UNK N   1      41.031  44.723  44.643  0.00  0.00    -0.361 OA
HETATM   13  H   UNK N   1      41.723  44.255  44.155  0.00  0.00     0.217 HD
ENDBRANCH   9  12
ENDBRANCH   5   6
ENDBRANCH   4   5
ENDBRANCH   3   4
ENDBRANCH   2   3
BRANCH   2  14
HETATM   14  C   UNK N   1      42.607  45.928  50.589  0.00  0.00     0.083 C 
HETATM   15  C   UNK N   1      41.778  46.712  49.874  0.00  0.00     0.017 C 
BRANCH  15  16
HETATM   16  C   UNK N   1      42.157  47.386  48.591  0.00  0.00    -0.033 A 
HETATM   17  C   UNK N   1      41.179  47.526  47.589  0.00  0.00     0.051 A 
HETATM   18  C   UNK N   1      41.488  48.141  46.365  0.00  0.00     0.102 A 
HETATM   19  C   UNK N   1      42.783  48.620  46.131  0.00  0.00     0.099 A 
HETATM   20  C   UNK N   1      43.762  48.489  47.119  0.00  0.00     0.040 A 
HETATM   21  C   UNK N   1      43.458  47.880  48.340  0.00  0.00     0.014 A 
BRANCH  18  22
HETATM   22  O   UNK N   1      40.541  48.268  45.411  0.00  0.00    -0.353 OA
HETATM   23  C   UNK N   1      39.325  48.858  45.678  0.00  0.00     0.210 C 
ENDBRANCH  18  22
BRANCH  19  24
HETATM   24  O   UNK N   1      43.076  49.207  44.950  0.00  0.00    -0.358 OA
HETATM   25  H   UNK N   1      43.989  49.320  44.651  0.00  0.00     0.218 HD
ENDBRANCH  19  24
ENDBRANCH  15  16
ENDBRANCH   2  14
TORSDOF 9
ENDMDL
MODEL 5
REMARK VINA RESULT:      -7.1      1.591      9.278
REMARK  9 active torsions:
REMARK  status: ('A' for Active; 'I' for Inactive)
REMARK    1  A    between atoms: C_2  and  O_3 
REMARK    2  A    between atoms: C_2  and  C_14 
REMARK    3  A    between atoms: O_3  and  C_4 
REMARK    4  A    between atoms: C_4  and  C_5 
REMARK    5  A    between atoms: C_5  and  C_6 
REMARK    6  A    between atoms: C_9  and  O_10 
REMARK    7  A    between atoms: C_15  and  C_16 
REMARK    8  A    between atoms: C_18  and  O_19 
REMARK    9  A    between atoms: C_21  and  O_22 
ROOT
HETATM    1  O   UNK N   1      43.831  48.579  46.868  0.00  0.00    -0.260 OA
HETATM    2  C   UNK N   1      42.751  48.011  46.933  0.00  0.00     0.282 C 
ENDROOT
BRANCH   2   3
HETATM    3  O   UNK N   1      41.869  48.078  45.898  0.00  0.00    -0.318 OA
BRANCH   3   4
HETATM    4  C   UNK N   1      40.508  47.822  46.002  0.00  0.00     0.183 C 
BRANCH   4   5
HETATM    5  C   UNK N   1      39.745  49.145  45.965  0.00  0.00     0.065 C 
BRANCH   5   6
HETATM    6  C   UNK N   1      39.233  49.443  44.580  0.00  0.00    -0.056 A 
HETATM    7  C   UNK N   1      39.832  50.447  43.800  0.00  0.00     0.010 A 
HETATM    8  C   UNK N   1      39.356  50.715  42.512  0.00  0.00     0.037 A 
HETATM    9  C   UNK N   1      38.271  49.995  41.999  0.00  0.00     0.065 A 
HETATM   10  C   UNK N   1      37.667  48.998  42.779  0.00  0.00     0.037 A 
HETATM   11  C   UNK N   1      38.151  48.718  44.059  0.00  0.00     0.010 A 
BRANCH   9  12
HETATM   12  O   UNK N   1      37.815  50.268  40.760  0.00  0.00    -0.361 OA
HETATM   13  H   UNK N   1      37.476  51.143  40.525  0.00  0.00     0.217 HD
ENDBRANCH   9  12
ENDBRANCH   5   6
ENDBRANCH   4   5
ENDBRANCH   3   4
ENDBRANCH   2   3
BRANCH   2  14
HETATM   14  C   UNK N   1      42.427  47.239  48.154  0.00  0.00     0.083 C 
HETATM   15  C   UNK N   1      41.829  46.032  48.107  0.00  0.00     0.017 C 
BRANCH  15  16
HETATM   16  C   UNK N   1      41.469  45.225  49.316  0.00  0.00    -0.033 A 
HETATM   17  C   UNK N   1      42.045  45.572  50.552  0.00  0.00     0.051 A 
HETATM   18  C   UNK N   1      41.746  44.841  51.713  0.00  0.00     0.102 A 
HETATM   19  C   UNK N   1      40.871  43.750  51.647  0.00  0.00     0.099 A 
HETATM   20  C   UNK N   1      40.291  43.397  50.425  0.00  0.00     0.040 A 
HETATM   21  C   UNK N   1      40.583  44.125  49.268  0.00  0.00     0.014 A 
BRANCH  18  22
HETATM   22  O   UNK N   1      42.306  45.183  52.894  0.00  0.00    -0.353 OA
HETATM   23  C   UNK N   1      41.623  45.939  53.821  0.00  0.00     0.210 C 
ENDBRANCH  18  22
BRANCH  19  24
HETATM   24  O   UNK N   1      40.591  43.047  52.766  0.00  0.00    -0.358 OA
HETATM   25  H   UNK N   1      39.947  42.324  52.765  0.00  0.00     0.218 HD
ENDBRANCH  19  24
ENDBRANCH  15  16
ENDBRANCH   2  14
TORSDOF 9
ENDMDL
MODEL 6
REMARK VINA RESULT:      -6.7     10.164     13.517
REMARK  9 active torsions:
REMARK  status: ('A' for Active; 'I' for Inactive)
REMARK    1  A    between atoms: C_2  and  O_3 
REMARK    2  A    between atoms: C_2  and  C_14 
REMARK    3  A    between atoms: O_3  and  C_4 
REMARK    4  A    between atoms: C_4  and  C_5 
REMARK    5  A    between atoms: C_5  and  C_6 
REMARK    6  A    between atoms: C_9  and  O_10 
REMARK    7  A    between atoms: C_15  and  C_16 
REMARK    8  A    between atoms: C_18  and  O_19 
REMARK    9  A    between atoms: C_21  and  O_22 
ROOT
HETATM    1  O   UNK N   1      33.192  55.796  44.397  0.00  0.00    -0.260 OA
HETATM    2  C   UNK N   1      32.784  54.653  44.253  0.00  0.00     0.282 C 
ENDROOT
BRANCH   2   3
HETATM    3  O   UNK N   1      33.601  53.590  44.493  0.00  0.00    -0.318 OA
BRANCH   3   4
HETATM    4  C   UNK N   1      33.162  52.289  44.703  0.00  0.00     0.183 C 
BRANCH   4   5
HETATM    5  C   UNK N   1      33.852  51.361  43.705  0.00  0.00     0.065 C 
BRANCH   5   6
HETATM    6  C   UNK N   1      32.848  50.635  42.848  0.00  0.00    -0.056 A 
HETATM    7  C   UNK N   1      32.069  51.338  41.915  0.00  0.00     0.010 A 
HETATM    8  C   UNK N   1      31.142  50.658  41.117  0.00  0.00     0.037 A 
HETATM    9  C   UNK N   1      30.977  49.275  41.255  0.00  0.00     0.065 A 
HETATM   10  C   UNK N   1      31.748  48.572  42.191  0.00  0.00     0.037 A 
HETATM   11  C   UNK N   1      32.685  49.248  42.977  0.00  0.00     0.010 A 
BRANCH   9  12
HETATM   12  O   UNK N   1      30.075  48.631  40.487  0.00  0.00    -0.361 OA
HETATM   13  H   UNK N   1      29.372  48.090  40.874  0.00  0.00     0.217 HD
ENDBRANCH   9  12
ENDBRANCH   5   6
ENDBRANCH   4   5
ENDBRANCH   3   4
ENDBRANCH   2   3
BRANCH   2  14
HETATM   14  C   UNK N   1      31.381  54.448  43.826  0.00  0.00     0.083 C 
HETATM   15  C   UNK N   1      30.951  54.760  42.588  0.00  0.00     0.017 C 
BRANCH  15  16
HETATM   16  C   UNK N   1      29.539  54.584  42.120  0.00  0.00    -0.033 A 
HETATM   17  C   UNK N   1      28.520  55.306  42.770  0.00  0.00     0.051 A 
HETATM   18  C   UNK N   1      27.180  55.168  42.374  0.00  0.00     0.102 A 
HETATM   19  C   UNK N   1      26.845  54.301  41.327  0.00  0.00     0.099 A 
HETATM   20  C   UNK N   1      27.849  53.581  40.673  0.00  0.00     0.040 A 
HETATM   21  C   UNK N   1      29.185  53.718  41.061  0.00  0.00     0.014 A 
BRANCH  18  22
HETATM   22  O   UNK N   1      26.211  55.866  43.006  0.00  0.00    -0.353 OA
HETATM   23  C   UNK N   1      25.945  57.179  42.686  0.00  0.00     0.210 C 
ENDBRANCH  18  22
BRANCH  19  24
HETATM   24  O   UNK N   1      25.554  54.169  40.954  0.00  0.00    -0.358 OA
HETATM   25  H   UNK N   1      24.980  53.490  41.337  0.00  0.00     0.218 HD
ENDBRANCH  19  24
ENDBRANCH  15  16
ENDBRANCH   2  14
TORSDOF 9
ENDMDL
MODEL 7
REMARK VINA RESULT:      -6.4      3.051      5.587
REMARK  9 active torsions:
REMARK  status: ('A' for Active; 'I' for Inactive)
REMARK    1  A    between atoms: C_2  and  O_3 
REMARK    2  A    between atoms: C_2  and  C_14 
REMARK    3  A    between atoms: O_3  and  C_4 
REMARK    4  A    between atoms: C_4  and  C_5 
REMARK    5  A    between atoms: C_5  and  C_6 
REMARK    6  A    between atoms: C_9  and  O_10 
REMARK    7  A    between atoms: C_15  and  C_16 
REMARK    8  A    between atoms: C_18  and  O_19 
REMARK    9  A    between atoms: C_21  and  O_22 
ROOT
HETATM    1  O   UNK N   1      42.780  45.993  52.950  0.00  0.00    -0.260 OA
HETATM    2  C   UNK N   1      42.128  45.396  52.106  0.00  0.00     0.282 C 
ENDROOT
BRANCH   2   3
HETATM    3  O   UNK N   1      41.708  44.120  52.329  0.00  0.00    -0.318 OA
BRANCH   3   4
HETATM    4  C   UNK N   1      41.475  43.180  51.333  0.00  0.00     0.183 C 
BRANCH   4   5
HETATM    5  C   UNK N   1      40.080  43.400  50.753  0.00  0.00     0.065 C 
BRANCH   5   6
HETATM    6  C   UNK N   1      40.142  43.713  49.281  0.00  0.00    -0.056 A 
HETATM    7  C   UNK N   1      41.300  43.422  48.540  0.00  0.00     0.010 A 
HETATM    8  C   UNK N   1      41.349  43.710  47.171  0.00  0.00     0.037 A 
HETATM    9  C   UNK N   1      40.252  44.303  46.537  0.00  0.00     0.065 A 
HETATM   10  C   UNK N   1      39.099  44.601  47.276  0.00  0.00     0.037 A 
HETATM   11  C   UNK N   1      39.041  44.299  48.639  0.00  0.00     0.010 A 
BRANCH   9  12
HETATM   12  O   UNK N   1      40.315  44.583  45.219  0.00  0.00    -0.361 OA
HETATM   13  H   UNK N   1      39.589  45.029  44.760  0.00  0.00     0.217 HD
ENDBRANCH   9  12
ENDBRANCH   5   6
ENDBRANCH   4   5
ENDBRANCH   3   4
ENDBRANCH   2   3
BRANCH   2  14
HETATM   14  C   UNK N   1      41.795  46.092  50.842  0.00  0.00     0.083 C 
HETATM   15  C   UNK N   1      42.732  46.431  49.936  0.00  0.00     0.017 C 
BRANCH  15  16
HETATM   16  C   UNK N   1      42.441  47.149  48.654  0.00  0.00    -0.033 A 
HETATM   17  C   UNK N   1      43.487  47.846  48.020  0.00  0.00     0.051 A 
HETATM   18  C   UNK N   1      43.262  48.543  46.822  0.00  0.00     0.102 A 
HETATM   19  C   UNK N   1      41.984  48.553  46.248  0.00  0.00     0.099 A 
HETATM   20  C   UNK N   1      40.938  47.863  46.868  0.00  0.00     0.040 A 
HETATM   21  C   UNK N   1      41.159  47.165  48.059  0.00  0.00     0.014 A 
BRANCH  18  22
HETATM   22  O   UNK N   1      44.273  49.208  46.224  0.00  0.00    -0.353 OA
HETATM   23  C   UNK N   1      45.452  49.470  46.886  0.00  0.00     0.210 C 
ENDBRANCH  18  22
BRANCH  19  24
HETATM   24  O   UNK N   1      41.772  49.229  45.098  0.00  0.00    -0.358 OA
HETATM   25  H   UNK N   1      42.375  49.924  44.798  0.00  0.00     0.218 HD
ENDBRANCH  19  24
ENDBRANCH  15  16
ENDBRANCH   2  14
TORSDOF 9
ENDMDL
MODEL 8
REMARK VINA RESULT:      -6.3     10.361     14.879
REMARK  9 active torsions:
REMARK  status: ('A' for Active; 'I' for Inactive)
REMARK    1  A    between atoms: C_2  and  O_3 
REMARK    2  A    between atoms: C_2  and  C_14 
REMARK    3  A    between atoms: O_3  and  C_4 
REMARK    4  A    between atoms: C_4  and  C_5 
REMARK    5  A    between atoms: C_5  and  C_6 
REMARK    6  A    between atoms: C_9  and  O_10 
REMARK    7  A    between atoms: C_15  and  C_16 
REMARK    8  A    between atoms: C_18  and  O_19 
REMARK    9  A    between atoms: C_21  and  O_22 
ROOT
HETATM    1  O   UNK N   1      27.413  56.474  42.321  0.00  0.00    -0.260 OA
HETATM    2  C   UNK N   1      28.512  56.216  41.854  0.00  0.00     0.282 C 
ENDROOT
BRANCH   2   3
HETATM    3  O   UNK N   1      28.897  56.743  40.658  0.00  0.00    -0.318 OA
BRANCH   3   4
HETATM    4  C   UNK N   1      28.489  56.268  39.418  0.00  0.00     0.183 C 
BRANCH   4   5
HETATM    5  C   UNK N   1      29.624  55.460  38.793  0.00  0.00     0.065 C 
BRANCH   5   6
HETATM    6  C   UNK N   1      29.616  54.036  39.281  0.00  0.00    -0.056 A 
HETATM    7  C   UNK N   1      30.818  53.395  39.628  0.00  0.00     0.010 A 
HETATM    8  C   UNK N   1      30.804  52.074  40.087  0.00  0.00     0.037 A 
HETATM    9  C   UNK N   1      29.595  51.377  40.189  0.00  0.00     0.065 A 
HETATM   10  C   UNK N   1      28.395  52.011  39.836  0.00  0.00     0.037 A 
HETATM   11  C   UNK N   1      28.405  53.336  39.393  0.00  0.00     0.010 A 
BRANCH   9  12
HETATM   12  O   UNK N   1      29.594  50.101  40.624  0.00  0.00    -0.361 OA
HETATM   13  H   UNK N   1      30.033  49.845  41.448  0.00  0.00     0.217 HD
ENDBRANCH   9  12
ENDBRANCH   5   6
ENDBRANCH   4   5
ENDBRANCH   3   4
ENDBRANCH   2   3
BRANCH   2  14
HETATM   14  C   UNK N   1      29.421  55.332  42.619  0.00  0.00     0.083 C 
HETATM   15  C   UNK N   1      30.746  55.561  42.705  0.00  0.00     0.017 C 
BRANCH  15  16
HETATM   16  C   UNK N   1      31.702  54.684  43.454  0.00  0.00    -0.033 A 
HETATM   17  C   UNK N   1      31.503  53.291  43.422  0.00  0.00     0.051 A 
HETATM   18  C   UNK N   1      32.367  52.428  44.116  0.00  0.00     0.102 A 
HETATM   19  C   UNK N   1      33.436  52.951  44.853  0.00  0.00     0.099 A 
HETATM   20  C   UNK N   1      33.644  54.333  44.890  0.00  0.00     0.040 A 
HETATM   21  C   UNK N   1      32.789  55.196  44.198  0.00  0.00     0.014 A 
BRANCH  18  22
HETATM   22  O   UNK N   1      32.166  51.093  44.078  0.00  0.00    -0.353 OA
HETATM   23  C   UNK N   1      32.450  50.354  42.951  0.00  0.00     0.210 C 
ENDBRANCH  18  22
BRANCH  19  24
HETATM   24  O   UNK N   1      34.261  52.117  45.522  0.00  0.00    -0.358 OA
HETATM   25  H   UNK N   1      33.920  51.393  46.067  0.00  0.00     0.218 HD
ENDBRANCH  19  24
ENDBRANCH  15  16
ENDBRANCH   2  14
TORSDOF 9
ENDMDL
MODEL 9
REMARK VINA RESULT:      -6.3     10.112     13.076
REMARK  9 active torsions:
REMARK  status: ('A' for Active; 'I' for Inactive)
REMARK    1  A    between atoms: C_2  and  O_3 
REMARK    2  A    between atoms: C_2  and  C_14 
REMARK    3  A    between atoms: O_3  and  C_4 
REMARK    4  A    between atoms: C_4  and  C_5 
REMARK    5  A    between atoms: C_5  and  C_6 
REMARK    6  A    between atoms: C_9  and  O_10 
REMARK    7  A    between atoms: C_15  and  C_16 
REMARK    8  A    between atoms: C_18  and  O_19 
REMARK    9  A    between atoms: C_21  and  O_22 
ROOT
HETATM    1  O   UNK N   1      33.176  55.507  45.781  0.00  0.00    -0.260 OA
HETATM    2  C   UNK N   1      33.179  54.805  44.781  0.00  0.00     0.282 C 
ENDROOT
BRANCH   2   3
HETATM    3  O   UNK N   1      33.837  53.612  44.772  0.00  0.00    -0.318 OA
BRANCH   3   4
HETATM    4  C   UNK N   1      33.218  52.369  44.806  0.00  0.00     0.183 C 
BRANCH   4   5
HETATM    5  C   UNK N   1      33.887  51.450  43.786  0.00  0.00     0.065 C 
BRANCH   5   6
HETATM    6  C   UNK N   1      32.866  50.751  42.926  0.00  0.00    -0.056 A 
HETATM    7  C   UNK N   1      32.682  49.362  43.027  0.00  0.00     0.010 A 
HETATM    8  C   UNK N   1      31.728  48.720  42.230  0.00  0.00     0.037 A 
HETATM    9  C   UNK N   1      30.963  49.455  41.318  0.00  0.00     0.065 A 
HETATM   10  C   UNK N   1      31.151  50.840  41.210  0.00  0.00     0.037 A 
HETATM   11  C   UNK N   1      32.091  51.486  42.016  0.00  0.00     0.010 A 
BRANCH   9  12
HETATM   12  O   UNK N   1      30.053  48.824  40.549  0.00  0.00    -0.361 OA
HETATM   13  H   UNK N   1      30.109  47.874  40.370  0.00  0.00     0.217 HD
ENDBRANCH   9  12
ENDBRANCH   5   6
ENDBRANCH   4   5
ENDBRANCH   3   4
ENDBRANCH   2   3
BRANCH   2  14
HETATM   14  C   UNK N   1      32.442  55.270  43.583  0.00  0.00     0.083 C 
HETATM   15  C   UNK N   1      31.202  54.835  43.285  0.00  0.00     0.017 C 
BRANCH  15  16
HETATM   16  C   UNK N   1      30.429  55.267  42.077  0.00  0.00    -0.033 A 
HETATM   17  C   UNK N   1      29.058  54.955  42.009  0.00  0.00     0.051 A 
HETATM   18  C   UNK N   1      28.292  55.330  40.894  0.00  0.00     0.102 A 
HETATM   19  C   UNK N   1      28.892  56.017  39.832  0.00  0.00     0.099 A 
HETATM   20  C   UNK N   1      30.253  56.334  39.889  0.00  0.00     0.040 A 
HETATM   21  C   UNK N   1      31.018  55.966  40.999  0.00  0.00     0.014 A 
BRANCH  18  22
HETATM   22  O   UNK N   1      26.977  55.024  40.840  0.00  0.00    -0.353 OA
HETATM   23  C   UNK N   1      26.523  53.753  41.110  0.00  0.00     0.210 C 
ENDBRANCH  18  22
BRANCH  19  24
HETATM   24  O   UNK N   1      28.151  56.371  38.759  0.00  0.00    -0.358 OA
HETATM   25  H   UNK N   1      27.915  55.733  38.071  0.00  0.00     0.218 HD
ENDBRANCH  19  24
ENDBRANCH  15  16
ENDBRANCH   2  14
TORSDOF 9
ENDMDL
