MODEL 1
REMARK VINA RESULT:      -5.1      0.000      0.000
REMARK  11 active torsions:
REMARK  status: ('A' for Active; 'I' for Inactive)
REMARK    1  A    between atoms: C_4  and  O_5 
REMARK    2  A    between atoms: C_7  and  C_26 
REMARK    3  A    between atoms: C_8  and  O_9 
REMARK    4  A    between atoms: C_14  and  C_16 
REMARK    5  A    between atoms: C_18  and  O_19 
REMARK    6  A    between atoms: C_21  and  O_22 
REMARK    7  A    between atoms: C_28  and  C_38 
REMARK    8  A    between atoms: C_29  and  O_30 
REMARK    9  A    between atoms: C_32  and  O_33 
REMARK   10  A    between atoms: C_35  and  O_36 
REMARK   11  A    between atoms: C_38  and  O_39 
ROOT
HETATM    1  O   UNK N   1      32.080  44.451  57.333  0.00  0.00    -0.287 OA
HETATM    2  C   UNK N   1      31.007  43.883  57.346  0.00  0.00     0.190 A 
HETATM    3  C   UNK N   1      29.784  44.574  57.575  0.00  0.00     0.082 A 
HETATM    4  C   UNK N   1      29.673  45.986  57.818  0.00  0.00     0.094 A 
HETATM    5  C   UNK N   1      28.395  46.557  58.076  0.00  0.00     0.041 A 
HETATM    6  C   UNK N   1      27.244  45.735  58.094  0.00  0.00     0.082 A 
HETATM    7  C   UNK N   1      27.368  44.367  57.825  0.00  0.00     0.075 A 
HETATM    8  C   UNK N   1      28.603  43.795  57.568  0.00  0.00     0.095 A 
HETATM    9  O   UNK N   1      28.645  42.489  57.330  0.00  0.00    -0.309 OA
HETATM   10  C   UNK N   1      29.770  41.817  57.128  0.00  0.00     0.090 A 
HETATM   11  C   UNK N   1      30.990  42.503  57.139  0.00  0.00     0.094 A 
ENDROOT
BRANCH   5  12
HETATM   12  C   UNK N   1      28.262  48.058  58.347  0.00  0.00     0.192 C 
HETATM   13  O   UNK N   1      28.900  48.757  57.291  0.00  0.00    -0.368 OA
HETATM   14  C   UNK N   1      28.665  50.153  57.387  0.00  0.00     0.177 C 
HETATM   15  C   UNK N   1      29.323  50.704  58.682  0.00  0.00     0.180 C 
HETATM   16  C   UNK N   1      28.754  49.972  59.911  0.00  0.00     0.181 C 
HETATM   17  C   UNK N   1      28.881  48.451  59.716  0.00  0.00     0.183 C 
BRANCH  14  18
HETATM   18  C   UNK N   1      29.241  50.806  56.121  0.00  0.00     0.198 C 
BRANCH  18  19
HETATM   19  O   UNK N   1      30.579  51.186  56.302  0.00  0.00    -0.398 OA
HETATM   20  H   UNK N   1      30.832  50.932  57.227  0.00  0.00     0.209 HD
ENDBRANCH  18  19
ENDBRANCH  14  18
BRANCH  15  21
HETATM   21  O   UNK N   1      29.138  52.090  58.821  0.00  0.00    -0.390 OA
HETATM   22  H   UNK N   1      28.159  52.264  58.826  0.00  0.00     0.210 HD
ENDBRANCH  15  21
BRANCH  16  23
HETATM   23  O   UNK N   1      29.453  50.391  61.056  0.00  0.00    -0.390 OA
HETATM   24  H   UNK N   1      30.420  50.267  60.876  0.00  0.00     0.210 HD
ENDBRANCH  16  23
BRANCH  17  25
HETATM   25  O   UNK N   1      28.210  47.798  60.765  0.00  0.00    -0.390 OA
HETATM   26  H   UNK N   1      27.252  48.046  60.698  0.00  0.00     0.210 HD
ENDBRANCH  17  25
ENDBRANCH   5  12
BRANCH   4  27
HETATM   27  O   UNK N   1      30.742  46.819  57.817  0.00  0.00    -0.359 OA
HETATM   28  H   UNK N   1      30.749  47.761  58.003  0.00  0.00     0.218 HD
ENDBRANCH   4  27
BRANCH   6  29
HETATM   29  O   UNK N   1      26.032  46.286  58.380  0.00  0.00    -0.355 OA
HETATM   30  C   UNK N   1      24.928  46.273  57.550  0.00  0.00     0.210 C 
ENDBRANCH   6  29
BRANCH  10  31
HETATM   31  C   UNK N   1      29.685  40.351  56.899  0.00  0.00     0.001 A 
HETATM   32  C   UNK N   1      29.677  39.481  58.004  0.00  0.00     0.053 A 
HETATM   33  C   UNK N   1      29.594  38.093  57.822  0.00  0.00     0.099 A 
HETATM   34  C   UNK N   1      29.549  37.555  56.529  0.00  0.00     0.101 A 
HETATM   35  C   UNK N   1      29.571  38.424  55.420  0.00  0.00     0.040 A 
HETATM   36  C   UNK N   1      29.626  39.806  55.604  0.00  0.00     0.017 A 
BRANCH  33  37
HETATM   37  O   UNK N   1      29.554  37.270  58.891  0.00  0.00    -0.358 OA
HETATM   38  H   UNK N   1      30.277  37.231  59.534  0.00  0.00     0.218 HD
ENDBRANCH  33  37
BRANCH  34  39
HETATM   39  O   UNK N   1      29.488  36.203  56.385  0.00  0.00    -0.353 OA
HETATM   40  C   UNK N   1      30.364  35.447  55.633  0.00  0.00     0.210 C 
ENDBRANCH  34  39
ENDBRANCH  10  31
TORSDOF 11
ENDMDL
MODEL 2
REMARK VINA RESULT:      -5.0     18.795     22.815
REMARK  11 active torsions:
REMARK  status: ('A' for Active; 'I' for Inactive)
REMARK    1  A    between atoms: C_4  and  O_5 
REMARK    2  A    between atoms: C_7  and  C_26 
REMARK    3  A    between atoms: C_8  and  O_9 
REMARK    4  A    between atoms: C_14  and  C_16 
REMARK    5  A    between atoms: C_18  and  O_19 
REMARK    6  A    between atoms: C_21  and  O_22 
REMARK    7  A    between atoms: C_28  and  C_38 
REMARK    8  A    between atoms: C_29  and  O_30 
REMARK    9  A    between atoms: C_32  and  O_33 
REMARK   10  A    between atoms: C_35  and  O_36 
REMARK   11  A    between atoms: C_38  and  O_39 
ROOT
HETATM    1  O   UNK N   1      45.846  58.836  57.359  0.00  0.00    -0.287 OA
HETATM    2  C   UNK N   1      45.885  57.940  58.178  0.00  0.00     0.190 A 
HETATM    3  C   UNK N   1      46.903  56.946  58.169  0.00  0.00     0.082 A 
HETATM    4  C   UNK N   1      47.974  56.876  57.213  0.00  0.00     0.094 A 
HETATM    5  C   UNK N   1      48.909  55.806  57.282  0.00  0.00     0.041 A 
HETATM    6  C   UNK N   1      48.781  54.818  58.285  0.00  0.00     0.082 A 
HETATM    7  C   UNK N   1      47.750  54.918  59.226  0.00  0.00     0.075 A 
HETATM    8  C   UNK N   1      46.832  55.955  59.177  0.00  0.00     0.095 A 
HETATM    9  O   UNK N   1      45.875  55.981  60.098  0.00  0.00    -0.309 OA
HETATM   10  C   UNK N   1      44.907  56.887  60.122  0.00  0.00     0.090 A 
HETATM   11  C   UNK N   1      44.884  57.893  59.150  0.00  0.00     0.094 A 
ENDROOT
BRANCH   5  12
HETATM   12  C   UNK N   1      50.050  55.714  56.264  0.00  0.00     0.192 C 
HETATM   13  O   UNK N   1      50.373  57.027  55.839  0.00  0.00    -0.368 OA
HETATM   14  C   UNK N   1      51.536  57.030  55.028  0.00  0.00     0.177 C 
HETATM   15  C   UNK N   1      51.257  56.246  53.715  0.00  0.00     0.180 C 
HETATM   16  C   UNK N   1      50.830  54.805  54.046  0.00  0.00     0.181 C 
HETATM   17  C   UNK N   1      49.664  54.825  55.050  0.00  0.00     0.183 C 
BRANCH  14  18
HETATM   18  C   UNK N   1      51.908  58.497  54.759  0.00  0.00     0.198 C 
BRANCH  18  19
HETATM   19  O   UNK N   1      51.454  58.920  53.501  0.00  0.00    -0.398 OA
HETATM   20  H   UNK N   1      50.514  59.215  53.613  0.00  0.00     0.209 HD
ENDBRANCH  18  19
ENDBRANCH  14  18
BRANCH  15  21
HETATM   21  O   UNK N   1      52.374  56.232  52.860  0.00  0.00    -0.390 OA
HETATM   22  H   UNK N   1      52.091  56.622  51.991  0.00  0.00     0.210 HD
ENDBRANCH  15  21
BRANCH  16  23
HETATM   23  O   UNK N   1      50.458  54.154  52.857  0.00  0.00    -0.390 OA
HETATM   24  H   UNK N   1      50.165  53.239  53.099  0.00  0.00     0.210 HD
ENDBRANCH  16  23
BRANCH  17  25
HETATM   25  O   UNK N   1      49.397  53.509  55.467  0.00  0.00    -0.390 OA
HETATM   26  H   UNK N   1      49.494  53.490  56.454  0.00  0.00     0.210 HD
ENDBRANCH  17  25
ENDBRANCH   5  12
BRANCH   4  27
HETATM   27  O   UNK N   1      48.141  57.793  56.229  0.00  0.00    -0.359 OA
HETATM   28  H   UNK N   1      48.898  57.892  55.645  0.00  0.00     0.218 HD
ENDBRANCH   4  27
BRANCH   6  29
HETATM   29  O   UNK N   1      49.660  53.778  58.317  0.00  0.00    -0.355 OA
HETATM   30  C   UNK N   1      49.712  52.801  59.292  0.00  0.00     0.210 C 
ENDBRANCH   6  29
BRANCH  10  31
HETATM   31  C   UNK N   1      43.878  56.791  61.190  0.00  0.00     0.001 A 
HETATM   32  C   UNK N   1      42.664  57.483  61.040  0.00  0.00     0.053 A 
HETATM   33  C   UNK N   1      41.670  57.410  62.028  0.00  0.00     0.099 A 
HETATM   34  C   UNK N   1      41.893  56.667  63.195  0.00  0.00     0.101 A 
HETATM   35  C   UNK N   1      43.115  55.983  63.353  0.00  0.00     0.040 A 
HETATM   36  C   UNK N   1      44.091  56.035  62.357  0.00  0.00     0.017 A 
BRANCH  33  37
HETATM   37  O   UNK N   1      40.496  58.053  61.858  0.00  0.00    -0.358 OA
HETATM   38  H   UNK N   1      39.988  57.982  61.037  0.00  0.00     0.218 HD
ENDBRANCH  33  37
BRANCH  34  39
HETATM   39  O   UNK N   1      40.918  56.631  64.143  0.00  0.00    -0.353 OA
HETATM   40  C   UNK N   1      40.052  55.576  64.348  0.00  0.00     0.210 C 
ENDBRANCH  34  39
ENDBRANCH  10  31
TORSDOF 11
ENDMDL
MODEL 3
REMARK VINA RESULT:      -4.9      5.145      8.574
REMARK  11 active torsions:
REMARK  status: ('A' for Active; 'I' for Inactive)
REMARK    1  A    between atoms: C_4  and  O_5 
REMARK    2  A    between atoms: C_7  and  C_26 
REMARK    3  A    between atoms: C_8  and  O_9 
REMARK    4  A    between atoms: C_14  and  C_16 
REMARK    5  A    between atoms: C_18  and  O_19 
REMARK    6  A    between atoms: C_21  and  O_22 
REMARK    7  A    between atoms: C_28  and  C_38 
REMARK    8  A    between atoms: C_29  and  O_30 
REMARK    9  A    between atoms: C_32  and  O_33 
REMARK   10  A    between atoms: C_35  and  O_36 
REMARK   11  A    between atoms: C_38  and  O_39 
ROOT
HETATM    1  O   UNK N   1      32.537  43.049  55.896  0.00  0.00    -0.287 OA
HETATM    2  C   UNK N   1      32.067  42.913  57.007  0.00  0.00     0.190 A 
HETATM    3  C   UNK N   1      30.756  42.401  57.218  0.00  0.00     0.082 A 
HETATM    4  C   UNK N   1      29.852  42.002  56.174  0.00  0.00     0.094 A 
HETATM    5  C   UNK N   1      28.547  41.544  56.511  0.00  0.00     0.041 A 
HETATM    6  C   UNK N   1      28.146  41.486  57.866  0.00  0.00     0.082 A 
HETATM    7  C   UNK N   1      29.049  41.850  58.870  0.00  0.00     0.075 A 
HETATM    8  C   UNK N   1      30.326  42.294  58.562  0.00  0.00     0.095 A 
HETATM    9  O   UNK N   1      31.125  42.631  59.567  0.00  0.00    -0.309 OA
HETATM   10  C   UNK N   1      32.345  43.122  59.399  0.00  0.00     0.090 A 
HETATM   11  C   UNK N   1      32.847  43.284  58.102  0.00  0.00     0.094 A 
ENDROOT
BRANCH   5  12
HETATM   12  C   UNK N   1      27.570  41.125  55.409  0.00  0.00     0.192 C 
HETATM   13  O   UNK N   1      28.081  39.960  54.783  0.00  0.00    -0.368 OA
HETATM   14  C   UNK N   1      27.141  39.417  53.869  0.00  0.00     0.177 C 
HETATM   15  C   UNK N   1      26.905  40.422  52.707  0.00  0.00     0.180 C 
HETATM   16  C   UNK N   1      26.403  41.764  53.268  0.00  0.00     0.181 C 
HETATM   17  C   UNK N   1      27.359  42.258  54.369  0.00  0.00     0.183 C 
BRANCH  14  18
HETATM   18  C   UNK N   1      27.703  38.076  53.371  0.00  0.00     0.198 C 
BRANCH  18  19
HETATM   19  O   UNK N   1      26.762  37.380  52.599  0.00  0.00    -0.398 OA
HETATM   20  H   UNK N   1      27.057  37.440  51.654  0.00  0.00     0.209 HD
ENDBRANCH  18  19
ENDBRANCH  14  18
BRANCH  15  21
HETATM   21  O   UNK N   1      25.994  39.927  51.758  0.00  0.00    -0.390 OA
HETATM   22  H   UNK N   1      26.313  40.209  50.860  0.00  0.00     0.210 HD
ENDBRANCH  15  21
BRANCH  16  23
HETATM   23  O   UNK N   1      26.321  42.696  52.220  0.00  0.00    -0.390 OA
HETATM   24  H   UNK N   1      27.225  42.775  51.821  0.00  0.00     0.210 HD
ENDBRANCH  16  23
BRANCH  17  25
HETATM   25  O   UNK N   1      26.801  43.393  54.983  0.00  0.00    -0.390 OA
HETATM   26  H   UNK N   1      26.124  43.071  55.633  0.00  0.00     0.210 HD
ENDBRANCH  17  25
ENDBRANCH   5  12
BRANCH   4  27
HETATM   27  O   UNK N   1      30.183  42.042  54.861  0.00  0.00    -0.359 OA
HETATM   28  H   UNK N   1      29.597  42.199  54.116  0.00  0.00     0.218 HD
ENDBRANCH   4  27
BRANCH   6  29
HETATM   29  O   UNK N   1      26.882  41.083  58.174  0.00  0.00    -0.355 OA
HETATM   30  C   UNK N   1      25.846  41.911  58.558  0.00  0.00     0.210 C 
ENDBRANCH   6  29
BRANCH  10  31
HETATM   31  C   UNK N   1      33.132  43.487  60.606  0.00  0.00     0.001 A 
HETATM   32  C   UNK N   1      34.530  43.594  60.510  0.00  0.00     0.053 A 
HETATM   33  C   UNK N   1      35.301  43.941  61.629  0.00  0.00     0.099 A 
HETATM   34  C   UNK N   1      34.683  44.152  62.869  0.00  0.00     0.101 A 
HETATM   35  C   UNK N   1      33.283  44.031  62.971  0.00  0.00     0.040 A 
HETATM   36  C   UNK N   1      32.516  43.714  61.850  0.00  0.00     0.017 A 
BRANCH  33  37
HETATM   37  O   UNK N   1      36.639  44.073  61.517  0.00  0.00    -0.358 OA
HETATM   38  H   UNK N   1      37.144  43.606  60.835  0.00  0.00     0.218 HD
ENDBRANCH  33  37
BRANCH  34  39
HETATM   39  O   UNK N   1      35.460  44.468  63.941  0.00  0.00    -0.353 OA
HETATM   40  C   UNK N   1      35.389  43.859  65.178  0.00  0.00     0.210 C 
ENDBRANCH  34  39
ENDBRANCH  10  31
TORSDOF 11
ENDMDL
MODEL 4
REMARK VINA RESULT:      -4.8      3.712      6.604
REMARK  11 active torsions:
REMARK  status: ('A' for Active; 'I' for Inactive)
REMARK    1  A    between atoms: C_4  and  O_5 
REMARK    2  A    between atoms: C_7  and  C_26 
REMARK    3  A    between atoms: C_8  and  O_9 
REMARK    4  A    between atoms: C_14  and  C_16 
REMARK    5  A    between atoms: C_18  and  O_19 
REMARK    6  A    between atoms: C_21  and  O_22 
REMARK    7  A    between atoms: C_28  and  C_38 
REMARK    8  A    between atoms: C_29  and  O_30 
REMARK    9  A    between atoms: C_32  and  O_33 
REMARK   10  A    between atoms: C_35  and  O_36 
REMARK   11  A    between atoms: C_38  and  O_39 
ROOT
HETATM    1  O   UNK N   1      29.450  50.447  57.014  0.00  0.00    -0.287 OA
HETATM    2  C   UNK N   1      29.461  49.761  58.016  0.00  0.00     0.190 A 
HETATM    3  C   UNK N   1      28.986  50.240  59.269  0.00  0.00     0.082 A 
HETATM    4  C   UNK N   1      28.458  51.557  59.498  0.00  0.00     0.094 A 
HETATM    5  C   UNK N   1      28.053  51.933  60.809  0.00  0.00     0.041 A 
HETATM    6  C   UNK N   1      28.173  51.015  61.878  0.00  0.00     0.082 A 
HETATM    7  C   UNK N   1      28.661  49.727  61.630  0.00  0.00     0.075 A 
HETATM    8  C   UNK N   1      29.056  49.341  60.360  0.00  0.00     0.095 A 
HETATM    9  O   UNK N   1      29.518  48.106  60.202  0.00  0.00    -0.309 OA
HETATM   10  C   UNK N   1      29.980  47.638  59.050  0.00  0.00     0.090 A 
HETATM   11  C   UNK N   1      29.969  48.465  57.921  0.00  0.00     0.094 A 
ENDROOT
BRANCH   5  12
HETATM   12  C   UNK N   1      27.497  53.336  61.070  0.00  0.00     0.192 C 
HETATM   13  O   UNK N   1      26.495  53.603  60.104  0.00  0.00    -0.368 OA
HETATM   14  C   UNK N   1      25.817  54.815  60.393  0.00  0.00     0.177 C 
HETATM   15  C   UNK N   1      26.808  56.006  60.276  0.00  0.00     0.180 C 
HETATM   16  C   UNK N   1      27.989  55.803  61.241  0.00  0.00     0.181 C 
HETATM   17  C   UNK N   1      28.614  54.414  61.013  0.00  0.00     0.183 C 
BRANCH  14  18
HETATM   18  C   UNK N   1      24.645  54.936  59.405  0.00  0.00     0.198 C 
BRANCH  18  19
HETATM   19  O   UNK N   1      25.011  55.661  58.261  0.00  0.00    -0.398 OA
HETATM   20  H   UNK N   1      24.179  55.841  57.751  0.00  0.00     0.209 HD
ENDBRANCH  18  19
ENDBRANCH  14  18
BRANCH  15  21
HETATM   21  O   UNK N   1      26.185  57.240  60.534  0.00  0.00    -0.390 OA
HETATM   22  H   UNK N   1      25.275  57.207  60.135  0.00  0.00     0.210 HD
ENDBRANCH  15  21
BRANCH  16  23
HETATM   23  O   UNK N   1      28.935  56.820  61.026  0.00  0.00    -0.390 OA
HETATM   24  H   UNK N   1      28.435  57.654  60.835  0.00  0.00     0.210 HD
ENDBRANCH  16  23
BRANCH  17  25
HETATM   25  O   UNK N   1      29.579  54.179  62.008  0.00  0.00    -0.390 OA
HETATM   26  H   UNK N   1      29.957  53.277  61.840  0.00  0.00     0.210 HD
ENDBRANCH  17  25
ENDBRANCH   5  12
BRANCH   4  27
HETATM   27  O   UNK N   1      28.325  52.477  58.512  0.00  0.00    -0.359 OA
HETATM   28  H   UNK N   1      27.510  52.786  58.108  0.00  0.00     0.218 HD
ENDBRANCH   4  27
BRANCH   6  29
HETATM   29  O   UNK N   1      27.818  51.400  63.135  0.00  0.00    -0.355 OA
HETATM   30  C   UNK N   1      26.802  50.845  63.888  0.00  0.00     0.210 C 
ENDBRANCH   6  29
BRANCH  10  31
HETATM   31  C   UNK N   1      30.495  46.245  59.009  0.00  0.00     0.001 A 
HETATM   32  C   UNK N   1      31.122  45.777  57.842  0.00  0.00     0.053 A 
HETATM   33  C   UNK N   1      31.623  44.469  57.773  0.00  0.00     0.099 A 
HETATM   34  C   UNK N   1      31.474  43.600  58.863  0.00  0.00     0.101 A 
HETATM   35  C   UNK N   1      30.833  44.064  60.029  0.00  0.00     0.040 A 
HETATM   36  C   UNK N   1      30.360  45.374  60.105  0.00  0.00     0.017 A 
BRANCH  33  37
HETATM   37  O   UNK N   1      32.253  44.040  56.658  0.00  0.00    -0.358 OA
HETATM   38  H   UNK N   1      32.663  43.164  56.608  0.00  0.00     0.218 HD
ENDBRANCH  33  37
BRANCH  34  39
HETATM   39  O   UNK N   1      31.953  42.331  58.759  0.00  0.00    -0.353 OA
HETATM   40  C   UNK N   1      32.829  41.740  59.647  0.00  0.00     0.210 C 
ENDBRANCH  34  39
ENDBRANCH  10  31
TORSDOF 11
ENDMDL
MODEL 5
REMARK VINA RESULT:      -4.8      2.003      3.265
REMARK  11 active torsions:
REMARK  status: ('A' for Active; 'I' for Inactive)
REMARK    1  A    between atoms: C_4  and  O_5 
REMARK    2  A    between atoms: C_7  and  C_26 
REMARK    3  A    between atoms: C_8  and  O_9 
REMARK    4  A    between atoms: C_14  and  C_16 
REMARK    5  A    between atoms: C_18  and  O_19 
REMARK    6  A    between atoms: C_21  and  O_22 
REMARK    7  A    between atoms: C_28  and  C_38 
REMARK    8  A    between atoms: C_29  and  O_30 
REMARK    9  A    between atoms: C_32  and  O_33 
REMARK   10  A    between atoms: C_35  and  O_36 
REMARK   11  A    between atoms: C_38  and  O_39 
ROOT
HETATM    1  O   UNK N   1      32.579  43.087  55.897  0.00  0.00    -0.287 OA
HETATM    2  C   UNK N   1      31.414  42.758  55.998  0.00  0.00     0.190 A 
HETATM    3  C   UNK N   1      30.460  43.548  56.698  0.00  0.00     0.082 A 
HETATM    4  C   UNK N   1      30.750  44.790  57.360  0.00  0.00     0.094 A 
HETATM    5  C   UNK N   1      29.717  45.469  58.065  0.00  0.00     0.041 A 
HETATM    6  C   UNK N   1      28.415  44.919  58.115  0.00  0.00     0.082 A 
HETATM    7  C   UNK N   1      28.144  43.723  57.440  0.00  0.00     0.075 A 
HETATM    8  C   UNK N   1      29.136  43.051  56.744  0.00  0.00     0.095 A 
HETATM    9  O   UNK N   1      28.807  41.917  56.136  0.00  0.00    -0.309 OA
HETATM   10  C   UNK N   1      29.678  41.155  55.488  0.00  0.00     0.090 A 
HETATM   11  C   UNK N   1      31.016  41.557  55.409  0.00  0.00     0.094 A 
ENDROOT
BRANCH   5  12
HETATM   12  C   UNK N   1      30.013  46.789  58.782  0.00  0.00     0.192 C 
HETATM   13  O   UNK N   1      29.248  46.828  59.975  0.00  0.00    -0.368 OA
HETATM   14  C   UNK N   1      29.604  47.943  60.775  0.00  0.00     0.177 C 
HETATM   15  C   UNK N   1      29.240  49.256  60.028  0.00  0.00     0.180 C 
HETATM   16  C   UNK N   1      29.966  49.307  58.672  0.00  0.00     0.181 C 
HETATM   17  C   UNK N   1      29.689  48.014  57.884  0.00  0.00     0.183 C 
BRANCH  14  18
HETATM   18  C   UNK N   1      28.857  47.811  62.112  0.00  0.00     0.198 C 
BRANCH  18  19
HETATM   19  O   UNK N   1      29.486  48.547  63.127  0.00  0.00    -0.398 OA
HETATM   20  H   UNK N   1      29.155  49.479  63.061  0.00  0.00     0.209 HD
ENDBRANCH  18  19
ENDBRANCH  14  18
BRANCH  15  21
HETATM   21  O   UNK N   1      29.554  50.400  60.784  0.00  0.00    -0.390 OA
HETATM   22  H   UNK N   1      30.269  50.892  60.300  0.00  0.00     0.210 HD
ENDBRANCH  15  21
BRANCH  16  23
HETATM   23  O   UNK N   1      29.524  50.434  57.958  0.00  0.00    -0.390 OA
HETATM   24  H   UNK N   1      30.184  50.607  57.238  0.00  0.00     0.210 HD
ENDBRANCH  16  23
BRANCH  17  25
HETATM   25  O   UNK N   1      30.488  48.003  56.728  0.00  0.00    -0.390 OA
HETATM   26  H   UNK N   1      30.760  47.062  56.570  0.00  0.00     0.210 HD
ENDBRANCH  17  25
ENDBRANCH   5  12
BRANCH   4  27
HETATM   27  O   UNK N   1      31.980  45.360  57.348  0.00  0.00    -0.359 OA
HETATM   28  H   UNK N   1      32.490  45.631  56.580  0.00  0.00     0.218 HD
ENDBRANCH   4  27
BRANCH   6  29
HETATM   29  O   UNK N   1      27.444  45.557  58.826  0.00  0.00    -0.355 OA
HETATM   30  C   UNK N   1      26.318  46.153  58.292  0.00  0.00     0.210 C 
ENDBRANCH   6  29
BRANCH  10  31
HETATM   31  C   UNK N   1      29.189  39.894  54.871  0.00  0.00     0.001 A 
HETATM   32  C   UNK N   1      28.082  39.935  54.006  0.00  0.00     0.053 A 
HETATM   33  C   UNK N   1      27.599  38.763  53.404  0.00  0.00     0.099 A 
HETATM   34  C   UNK N   1      28.200  37.529  53.687  0.00  0.00     0.101 A 
HETATM   35  C   UNK N   1      29.302  37.484  54.564  0.00  0.00     0.040 A 
HETATM   36  C   UNK N   1      29.798  38.655  55.140  0.00  0.00     0.017 A 
BRANCH  33  37
HETATM   37  O   UNK N   1      26.556  38.819  52.550  0.00  0.00    -0.358 OA
HETATM   38  H   UNK N   1      26.302  39.641  52.106  0.00  0.00     0.218 HD
ENDBRANCH  33  37
BRANCH  34  39
HETATM   39  O   UNK N   1      27.697  36.408  53.103  0.00  0.00    -0.353 OA
HETATM   40  C   UNK N   1      26.866  35.497  53.723  0.00  0.00     0.210 C 
ENDBRANCH  34  39
ENDBRANCH  10  31
TORSDOF 11
ENDMDL
MODEL 6
REMARK VINA RESULT:      -4.8      3.443      4.817
REMARK  11 active torsions:
REMARK  status: ('A' for Active; 'I' for Inactive)
REMARK    1  A    between atoms: C_4  and  O_5 
REMARK    2  A    between atoms: C_7  and  C_26 
REMARK    3  A    between atoms: C_8  and  O_9 
REMARK    4  A    between atoms: C_14  and  C_16 
REMARK    5  A    between atoms: C_18  and  O_19 
REMARK    6  A    between atoms: C_21  and  O_22 
REMARK    7  A    between atoms: C_28  and  C_38 
REMARK    8  A    between atoms: C_29  and  O_30 
REMARK    9  A    between atoms: C_32  and  O_33 
REMARK   10  A    between atoms: C_35  and  O_36 
REMARK   11  A    between atoms: C_38  and  O_39 
ROOT
HETATM    1  O   UNK N   1      28.387  46.474  62.286  0.00  0.00    -0.287 OA
HETATM    2  C   UNK N   1      29.067  46.154  61.331  0.00  0.00     0.190 A 
HETATM    3  C   UNK N   1      29.203  46.986  60.184  0.00  0.00     0.082 A 
HETATM    4  C   UNK N   1      28.566  48.263  60.015  0.00  0.00     0.094 A 
HETATM    5  C   UNK N   1      28.745  48.983  58.801  0.00  0.00     0.041 A 
HETATM    6  C   UNK N   1      29.544  48.441  57.768  0.00  0.00     0.082 A 
HETATM    7  C   UNK N   1      30.181  47.209  57.962  0.00  0.00     0.075 A 
HETATM    8  C   UNK N   1      30.022  46.495  59.139  0.00  0.00     0.095 A 
HETATM    9  O   UNK N   1      30.649  45.330  59.248  0.00  0.00    -0.309 OA
HETATM   10  C   UNK N   1      30.530  44.530  60.299  0.00  0.00     0.090 A 
HETATM   11  C   UNK N   1      29.722  44.923  61.372  0.00  0.00     0.094 A 
ENDROOT
BRANCH   5  12
HETATM   12  C   UNK N   1      28.065  50.341  58.604  0.00  0.00     0.192 C 
HETATM   13  O   UNK N   1      28.385  51.163  59.713  0.00  0.00    -0.368 OA
HETATM   14  C   UNK N   1      27.932  52.492  59.512  0.00  0.00     0.177 C 
HETATM   15  C   UNK N   1      26.380  52.507  59.442  0.00  0.00     0.180 C 
HETATM   16  C   UNK N   1      25.897  51.591  58.303  0.00  0.00     0.181 C 
HETATM   17  C   UNK N   1      26.526  50.195  58.457  0.00  0.00     0.183 C 
BRANCH  14  18
HETATM   18  C   UNK N   1      28.468  53.343  60.674  0.00  0.00     0.198 C 
BRANCH  18  19
HETATM   19  O   UNK N   1      29.271  54.397  60.211  0.00  0.00    -0.398 OA
HETATM   20  H   UNK N   1      29.480  54.209  59.260  0.00  0.00     0.209 HD
ENDBRANCH  18  19
ENDBRANCH  14  18
BRANCH  15  21
HETATM   21  O   UNK N   1      25.871  53.805  59.262  0.00  0.00    -0.390 OA
HETATM   22  H   UNK N   1      26.628  54.441  59.366  0.00  0.00     0.210 HD
ENDBRANCH  15  21
BRANCH  16  23
HETATM   23  O   UNK N   1      24.495  51.517  58.340  0.00  0.00    -0.390 OA
HETATM   24  H   UNK N   1      24.246  50.561  58.251  0.00  0.00     0.210 HD
ENDBRANCH  16  23
BRANCH  17  25
HETATM   25  O   UNK N   1      26.210  49.424  57.323  0.00  0.00    -0.390 OA
HETATM   26  H   UNK N   1      26.096  50.054  56.565  0.00  0.00     0.210 HD
ENDBRANCH  17  25
ENDBRANCH   5  12
BRANCH   4  27
HETATM   27  O   UNK N   1      27.787  48.827  60.970  0.00  0.00    -0.359 OA
HETATM   28  H   UNK N   1      27.745  49.755  61.217  0.00  0.00     0.218 HD
ENDBRANCH   4  27
BRANCH   6  29
HETATM   29  O   UNK N   1      29.677  49.121  56.596  0.00  0.00    -0.355 OA
HETATM   30  C   UNK N   1      30.808  49.798  56.184  0.00  0.00     0.210 C 
ENDBRANCH   6  29
BRANCH  10  31
HETATM   31  C   UNK N   1      31.263  43.238  60.288  0.00  0.00     0.001 A 
HETATM   32  C   UNK N   1      32.558  43.185  59.743  0.00  0.00     0.053 A 
HETATM   33  C   UNK N   1      33.279  41.982  59.721  0.00  0.00     0.099 A 
HETATM   34  C   UNK N   1      32.699  40.807  60.218  0.00  0.00     0.101 A 
HETATM   35  C   UNK N   1      31.396  40.855  60.753  0.00  0.00     0.040 A 
HETATM   36  C   UNK N   1      30.692  42.058  60.798  0.00  0.00     0.017 A 
BRANCH  33  37
HETATM   37  O   UNK N   1      34.533  41.951  59.225  0.00  0.00    -0.358 OA
HETATM   38  H   UNK N   1      34.859  42.630  58.616  0.00  0.00     0.218 HD
ENDBRANCH  33  37
BRANCH  34  39
HETATM   39  O   UNK N   1      33.416  39.652  60.166  0.00  0.00    -0.353 OA
HETATM   40  C   UNK N   1      32.908  38.393  60.417  0.00  0.00     0.210 C 
ENDBRANCH  34  39
ENDBRANCH  10  31
TORSDOF 11
ENDMDL
MODEL 7
REMARK VINA RESULT:      -4.7      5.116      8.815
REMARK  11 active torsions:
REMARK  status: ('A' for Active; 'I' for Inactive)
REMARK    1  A    between atoms: C_4  and  O_5 
REMARK    2  A    between atoms: C_7  and  C_26 
REMARK    3  A    between atoms: C_8  and  O_9 
REMARK    4  A    between atoms: C_14  and  C_16 
REMARK    5  A    between atoms: C_18  and  O_19 
REMARK    6  A    between atoms: C_21  and  O_22 
REMARK    7  A    between atoms: C_28  and  C_38 
REMARK    8  A    between atoms: C_29  and  O_30 
REMARK    9  A    between atoms: C_32  and  O_33 
REMARK   10  A    between atoms: C_35  and  O_36 
REMARK   11  A    between atoms: C_38  and  O_39 
ROOT
HETATM    1  O   UNK N   1      33.768  42.590  57.971  0.00  0.00    -0.287 OA
HETATM    2  C   UNK N   1      33.434  42.959  59.079  0.00  0.00     0.190 A 
HETATM    3  C   UNK N   1      32.071  43.002  59.486  0.00  0.00     0.082 A 
HETATM    4  C   UNK N   1      30.955  42.632  58.659  0.00  0.00     0.094 A 
HETATM    5  C   UNK N   1      29.632  42.759  59.167  0.00  0.00     0.041 A 
HETATM    6  C   UNK N   1      29.420  43.249  60.476  0.00  0.00     0.082 A 
HETATM    7  C   UNK N   1      30.520  43.576  61.277  0.00  0.00     0.075 A 
HETATM    8  C   UNK N   1      31.816  43.455  60.803  0.00  0.00     0.095 A 
HETATM    9  O   UNK N   1      32.809  43.793  61.616  0.00  0.00    -0.309 OA
HETATM   10  C   UNK N   1      34.086  43.775  61.259  0.00  0.00     0.090 A 
HETATM   11  C   UNK N   1      34.432  43.362  59.967  0.00  0.00     0.094 A 
ENDROOT
BRANCH   5  12
HETATM   12  C   UNK N   1      28.433  42.377  58.294  0.00  0.00     0.192 C 
HETATM   13  O   UNK N   1      28.619  41.047  57.841  0.00  0.00    -0.368 OA
HETATM   14  C   UNK N   1      27.464  40.569  57.171  0.00  0.00     0.177 C 
HETATM   15  C   UNK N   1      27.232  41.399  55.878  0.00  0.00     0.180 C 
HETATM   16  C   UNK N   1      27.076  42.889  56.232  0.00  0.00     0.181 C 
HETATM   17  C   UNK N   1      28.267  43.347  57.092  0.00  0.00     0.183 C 
BRANCH  14  18
HETATM   18  C   UNK N   1      27.688  39.079  56.870  0.00  0.00     0.198 C 
BRANCH  18  19
HETATM   19  O   UNK N   1      28.117  38.383  58.010  0.00  0.00    -0.398 OA
HETATM   20  H   UNK N   1      27.876  37.430  57.879  0.00  0.00     0.209 HD
ENDBRANCH  18  19
ENDBRANCH  14  18
BRANCH  15  21
HETATM   21  O   UNK N   1      26.107  40.957  55.160  0.00  0.00    -0.390 OA
HETATM   22  H   UNK N   1      25.552  40.411  55.777  0.00  0.00     0.210 HD
ENDBRANCH  15  21
BRANCH  16  23
HETATM   23  O   UNK N   1      26.998  43.636  55.044  0.00  0.00    -0.390 OA
HETATM   24  H   UNK N   1      27.602  44.415  55.143  0.00  0.00     0.210 HD
ENDBRANCH  16  23
BRANCH  17  25
HETATM   25  O   UNK N   1      28.028  44.657  57.544  0.00  0.00    -0.390 OA
HETATM   26  H   UNK N   1      28.415  45.274  56.871  0.00  0.00     0.210 HD
ENDBRANCH  17  25
ENDBRANCH   5  12
BRANCH   4  27
HETATM   27  O   UNK N   1      31.100  42.162  57.396  0.00  0.00    -0.359 OA
HETATM   28  H   UNK N   1      30.404  41.924  56.779  0.00  0.00     0.218 HD
ENDBRANCH   4  27
BRANCH   6  29
HETATM   29  O   UNK N   1      28.148  43.402  60.937  0.00  0.00    -0.355 OA
HETATM   30  C   UNK N   1      27.729  44.365  61.834  0.00  0.00     0.210 C 
ENDBRANCH   6  29
BRANCH  10  31
HETATM   31  C   UNK N   1      35.104  44.203  62.255  0.00  0.00     0.001 A 
HETATM   32  C   UNK N   1      36.420  44.452  61.830  0.00  0.00     0.053 A 
HETATM   33  C   UNK N   1      37.403  44.861  62.744  0.00  0.00     0.099 A 
HETATM   34  C   UNK N   1      37.086  44.994  64.103  0.00  0.00     0.101 A 
HETATM   35  C   UNK N   1      35.770  44.731  64.533  0.00  0.00     0.040 A 
HETATM   36  C   UNK N   1      34.788  44.351  63.617  0.00  0.00     0.017 A 
BRANCH  33  37
HETATM   37  O   UNK N   1      38.655  45.129  62.320  0.00  0.00    -0.358 OA
HETATM   38  H   UNK N   1      38.877  45.179  61.378  0.00  0.00     0.218 HD
ENDBRANCH  33  37
BRANCH  34  39
HETATM   39  O   UNK N   1      38.065  45.374  64.968  0.00  0.00    -0.353 OA
HETATM   40  C   UNK N   1      38.353  46.678  65.315  0.00  0.00     0.210 C 
ENDBRANCH  34  39
ENDBRANCH  10  31
TORSDOF 11
ENDMDL
MODEL 8
REMARK VINA RESULT:      -4.7      4.303      6.090
REMARK  11 active torsions:
REMARK  status: ('A' for Active; 'I' for Inactive)
REMARK    1  A    between atoms: C_4  and  O_5 
REMARK    2  A    between atoms: C_7  and  C_26 
REMARK    3  A    between atoms: C_8  and  O_9 
REMARK    4  A    between atoms: C_14  and  C_16 
REMARK    5  A    between atoms: C_18  and  O_19 
REMARK    6  A    between atoms: C_21  and  O_22 
REMARK    7  A    between atoms: C_28  and  C_38 
REMARK    8  A    between atoms: C_29  and  O_30 
REMARK    9  A    between atoms: C_32  and  O_33 
REMARK   10  A    between atoms: C_35  and  O_36 
REMARK   11  A    between atoms: C_38  and  O_39 
ROOT
HETATM    1  O   UNK N   1      30.097  40.244  58.914  0.00  0.00    -0.287 OA
HETATM    2  C   UNK N   1      29.869  41.170  58.162  0.00  0.00     0.190 A 
HETATM    3  C   UNK N   1      30.071  42.526  58.545  0.00  0.00     0.082 A 
HETATM    4  C   UNK N   1      30.546  42.954  59.832  0.00  0.00     0.094 A 
HETATM    5  C   UNK N   1      30.667  44.344  60.110  0.00  0.00     0.041 A 
HETATM    6  C   UNK N   1      30.317  45.296  59.125  0.00  0.00     0.082 A 
HETATM    7  C   UNK N   1      29.884  44.861  57.867  0.00  0.00     0.075 A 
HETATM    8  C   UNK N   1      29.765  43.511  57.575  0.00  0.00     0.095 A 
HETATM    9  O   UNK N   1      29.339  43.173  56.364  0.00  0.00    -0.309 OA
HETATM   10  C   UNK N   1      29.129  41.919  55.986  0.00  0.00     0.090 A 
HETATM   11  C   UNK N   1      29.385  40.879  56.886  0.00  0.00     0.094 A 
ENDROOT
BRANCH   5  12
HETATM   12  C   UNK N   1      31.163  44.815  61.480  0.00  0.00     0.192 C 
HETATM   13  O   UNK N   1      32.420  44.208  61.729  0.00  0.00    -0.368 OA
HETATM   14  C   UNK N   1      33.019  44.735  62.902  0.00  0.00     0.177 C 
HETATM   15  C   UNK N   1      32.150  44.370  64.138  0.00  0.00     0.180 C 
HETATM   16  C   UNK N   1      30.725  44.924  63.960  0.00  0.00     0.181 C 
HETATM   17  C   UNK N   1      30.154  44.465  62.607  0.00  0.00     0.183 C 
BRANCH  14  18
HETATM   18  C   UNK N   1      34.437  44.152  62.998  0.00  0.00     0.198 C 
BRANCH  18  19
HETATM   19  O   UNK N   1      35.255  44.926  63.837  0.00  0.00    -0.398 OA
HETATM   20  H   UNK N   1      34.684  45.255  64.578  0.00  0.00     0.209 HD
ENDBRANCH  18  19
ENDBRANCH  14  18
BRANCH  15  21
HETATM   21  O   UNK N   1      32.706  44.852  65.336  0.00  0.00    -0.390 OA
HETATM   22  H   UNK N   1      32.715  45.844  65.285  0.00  0.00     0.210 HD
ENDBRANCH  15  21
BRANCH  16  23
HETATM   23  O   UNK N   1      29.923  44.474  65.022  0.00  0.00    -0.390 OA
HETATM   24  H   UNK N   1      29.591  43.572  64.782  0.00  0.00     0.210 HD
ENDBRANCH  16  23
BRANCH  17  25
HETATM   25  O   UNK N   1      28.925  45.112  62.386  0.00  0.00    -0.390 OA
HETATM   26  H   UNK N   1      28.229  44.408  62.331  0.00  0.00     0.210 HD
ENDBRANCH  17  25
ENDBRANCH   5  12
BRANCH   4  27
HETATM   27  O   UNK N   1      30.891  42.086  60.814  0.00  0.00    -0.359 OA
HETATM   28  H   UNK N   1      30.315  41.481  61.288  0.00  0.00     0.218 HD
ENDBRANCH   4  27
BRANCH   6  29
HETATM   29  O   UNK N   1      30.399  46.624  59.416  0.00  0.00    -0.355 OA
HETATM   30  C   UNK N   1      29.935  47.651  58.618  0.00  0.00     0.210 C 
ENDBRANCH   6  29
BRANCH  10  31
HETATM   31  C   UNK N   1      28.625  41.673  54.609  0.00  0.00     0.001 A 
HETATM   32  C   UNK N   1      29.383  42.113  53.510  0.00  0.00     0.053 A 
HETATM   33  C   UNK N   1      28.937  41.892  52.198  0.00  0.00     0.099 A 
HETATM   34  C   UNK N   1      27.709  41.255  51.971  0.00  0.00     0.101 A 
HETATM   35  C   UNK N   1      26.942  40.825  53.072  0.00  0.00     0.040 A 
HETATM   36  C   UNK N   1      27.401  41.021  54.376  0.00  0.00     0.017 A 
BRANCH  33  37
HETATM   37  O   UNK N   1      29.688  42.290  51.150  0.00  0.00    -0.358 OA
HETATM   38  H   UNK N   1      30.185  43.121  51.163  0.00  0.00     0.218 HD
ENDBRANCH  33  37
BRANCH  34  39
HETATM   39  O   UNK N   1      27.295  41.072  50.688  0.00  0.00    -0.353 OA
HETATM   40  C   UNK N   1      25.979  41.074  50.273  0.00  0.00     0.210 C 
ENDBRANCH  34  39
ENDBRANCH  10  31
TORSDOF 11
ENDMDL
MODEL 9
REMARK VINA RESULT:      -4.7     16.402     19.204
REMARK  11 active torsions:
REMARK  status: ('A' for Active; 'I' for Inactive)
REMARK    1  A    between atoms: C_4  and  O_5 
REMARK    2  A    between atoms: C_7  and  C_26 
REMARK    3  A    between atoms: C_8  and  O_9 
REMARK    4  A    between atoms: C_14  and  C_16 
REMARK    5  A    between atoms: C_18  and  O_19 
REMARK    6  A    between atoms: C_21  and  O_22 
REMARK    7  A    between atoms: C_28  and  C_38 
REMARK    8  A    between atoms: C_29  and  O_30 
REMARK    9  A    between atoms: C_32  and  O_33 
REMARK   10  A    between atoms: C_35  and  O_36 
REMARK   11  A    between atoms: C_38  and  O_39 
ROOT
HETATM    1  O   UNK N   1      30.868  55.319  43.897  0.00  0.00    -0.287 OA
HETATM    2  C   UNK N   1      30.822  54.359  43.154  0.00  0.00     0.190 A 
HETATM    3  C   UNK N   1      29.945  54.306  42.035  0.00  0.00     0.082 A 
HETATM    4  C   UNK N   1      29.027  55.347  41.662  0.00  0.00     0.094 A 
HETATM    5  C   UNK N   1      28.168  55.158  40.543  0.00  0.00     0.041 A 
HETATM    6  C   UNK N   1      28.219  53.952  39.807  0.00  0.00     0.082 A 
HETATM    7  C   UNK N   1      29.140  52.962  40.167  0.00  0.00     0.075 A 
HETATM    8  C   UNK N   1      29.988  53.129  41.251  0.00  0.00     0.095 A 
HETATM    9  O   UNK N   1      30.829  52.143  41.538  0.00  0.00    -0.309 OA
HETATM   10  C   UNK N   1      31.647  52.160  42.582  0.00  0.00     0.090 A 
HETATM   11  C   UNK N   1      31.658  53.276  43.427  0.00  0.00     0.094 A 
ENDROOT
BRANCH   5  12
HETATM   12  C   UNK N   1      27.178  56.255  40.139  0.00  0.00     0.192 C 
HETATM   13  O   UNK N   1      27.883  57.482  40.059  0.00  0.00    -0.368 OA
HETATM   14  C   UNK N   1      27.064  58.508  39.521  0.00  0.00     0.177 C 
HETATM   15  C   UNK N   1      25.883  58.792  40.490  0.00  0.00     0.180 C 
HETATM   16  C   UNK N   1      25.066  57.506  40.711  0.00  0.00     0.181 C 
HETATM   17  C   UNK N   1      26.002  56.364  41.147  0.00  0.00     0.183 C 
BRANCH  14  18
HETATM   18  C   UNK N   1      27.952  59.745  39.311  0.00  0.00     0.198 C 
BRANCH  18  19
HETATM   19  O   UNK N   1      29.254  59.530  39.787  0.00  0.00    -0.398 OA
HETATM   20  H   UNK N   1      29.499  60.319  40.335  0.00  0.00     0.209 HD
ENDBRANCH  18  19
ENDBRANCH  14  18
BRANCH  15  21
HETATM   21  O   UNK N   1      25.045  59.817  40.016  0.00  0.00    -0.390 OA
HETATM   22  H   UNK N   1      25.571  60.660  40.017  0.00  0.00     0.210 HD
ENDBRANCH  15  21
BRANCH  16  23
HETATM   23  O   UNK N   1      24.085  57.751  41.687  0.00  0.00    -0.390 OA
HETATM   24  H   UNK N   1      24.549  57.843  42.559  0.00  0.00     0.210 HD
ENDBRANCH  16  23
BRANCH  17  25
HETATM   25  O   UNK N   1      25.270  55.164  41.183  0.00  0.00    -0.390 OA
HETATM   26  H   UNK N   1      24.573  55.225  40.480  0.00  0.00     0.210 HD
ENDBRANCH  17  25
ENDBRANCH   5  12
BRANCH   4  27
HETATM   27  O   UNK N   1      28.933  56.520  42.334  0.00  0.00    -0.359 OA
HETATM   28  H   UNK N   1      29.027  56.661  43.279  0.00  0.00     0.218 HD
ENDBRANCH   4  27
BRANCH   6  29
HETATM   29  O   UNK N   1      27.365  53.768  38.762  0.00  0.00    -0.355 OA
HETATM   30  C   UNK N   1      27.167  52.579  38.087  0.00  0.00     0.210 C 
ENDBRANCH   6  29
BRANCH  10  31
HETATM   31  C   UNK N   1      32.523  50.981  42.811  0.00  0.00     0.001 A 
HETATM   32  C   UNK N   1      33.887  51.180  43.086  0.00  0.00     0.053 A 
HETATM   33  C   UNK N   1      34.739  50.089  43.311  0.00  0.00     0.099 A 
HETATM   34  C   UNK N   1      34.242  48.781  43.233  0.00  0.00     0.101 A 
HETATM   35  C   UNK N   1      32.877  48.579  42.944  0.00  0.00     0.040 A 
HETATM   36  C   UNK N   1      32.026  49.667  42.747  0.00  0.00     0.017 A 
BRANCH  33  37
HETATM   37  O   UNK N   1      36.040  50.293  43.607  0.00  0.00    -0.358 OA
HETATM   38  H   UNK N   1      36.561  50.984  43.171  0.00  0.00     0.218 HD
ENDBRANCH  33  37
BRANCH  34  39
HETATM   39  O   UNK N   1      35.097  47.743  43.437  0.00  0.00    -0.353 OA
HETATM   40  C   UNK N   1      36.228  47.489  42.688  0.00  0.00     0.210 C 
ENDBRANCH  34  39
ENDBRANCH  10  31
TORSDOF 11
ENDMDL
