MODEL 1
REMARK VINA RESULT:      -7.5      0.000      0.000
REMARK  6 active torsions:
REMARK  status: ('A' for Active; 'I' for Inactive)
REMARK    1  A    between atoms: C_2  and  C_3 
REMARK    2  A    between atoms: C_5  and  O_6 
REMARK    3  A    between atoms: C_8  and  O_9 
REMARK    4  A    between atoms: C_16  and  C_17 
REMARK    5  A    between atoms: C_19  and  O_20 
REMARK    6  A    between atoms: C_22  and  O_23 
ROOT
HETATM    1  O   UNK N   1      39.296  48.787  47.168  0.00  0.00    -0.380 OA
HETATM    2  C   UNK N   1      40.251  48.569  46.138  0.00  0.00     0.161 C 
HETATM    3  C   UNK N   1      40.398  47.041  45.965  0.00  0.00     0.052 C 
HETATM    4  C   UNK N   1      41.822  46.521  45.891  0.00  0.00     0.176 C 
HETATM    5  O   UNK N   1      42.379  46.639  47.182  0.00  0.00    -0.380 OA
HETATM    6  C   UNK N   1      41.296  46.675  48.103  0.00  0.00     0.161 C 
HETATM    7  C   UNK N   1      39.995  46.536  47.283  0.00  0.00     0.052 C 
HETATM    8  C   UNK N   1      38.893  47.517  47.636  0.00  0.00     0.176 C 
ENDROOT
BRANCH   2   9
HETATM    9  C   UNK N   1      39.832  49.231  44.829  0.00  0.00    -0.026 A 
HETATM   10  C   UNK N   1      38.754  48.715  44.087  0.00  0.00     0.049 A 
HETATM   11  C   UNK N   1      38.340  49.334  42.887  0.00  0.00     0.101 A 
HETATM   12  C   UNK N   1      39.025  50.476  42.429  0.00  0.00     0.099 A 
HETATM   13  C   UNK N   1      40.100  50.984  43.162  0.00  0.00     0.040 A 
HETATM   14  C   UNK N   1      40.501  50.373  44.350  0.00  0.00     0.012 A 
BRANCH  11  15
HETATM   15  O   UNK N   1      37.290  48.861  42.160  0.00  0.00    -0.353 OA
HETATM   16  C   UNK N   1      36.349  47.958  42.612  0.00  0.00     0.210 C 
ENDBRANCH  11  15
BRANCH  12  17
HETATM   17  O   UNK N   1      38.662  51.096  41.286  0.00  0.00    -0.358 OA
HETATM   18  H   UNK N   1      38.778  52.047  41.151  0.00  0.00     0.218 HD
ENDBRANCH  12  17
ENDBRANCH   2   9
BRANCH   6  19
HETATM   19  C   UNK N   1      41.405  45.571  49.149  0.00  0.00    -0.026 A 
HETATM   20  C   UNK N   1      41.819  45.865  50.462  0.00  0.00     0.049 A 
HETATM   21  C   UNK N   1      41.938  44.848  51.430  0.00  0.00     0.101 A 
HETATM   22  C   UNK N   1      41.642  43.519  51.073  0.00  0.00     0.099 A 
HETATM   23  C   UNK N   1      41.230  43.224  49.769  0.00  0.00     0.040 A 
HETATM   24  C   UNK N   1      41.109  44.238  48.816  0.00  0.00     0.012 A 
BRANCH  21  25
HETATM   25  O   UNK N   1      42.336  45.119  52.705  0.00  0.00    -0.353 OA
HETATM   26  C   UNK N   1      41.491  45.466  53.741  0.00  0.00     0.210 C 
ENDBRANCH  21  25
BRANCH  22  27
HETATM   27  O   UNK N   1      41.748  42.515  51.970  0.00  0.00    -0.358 OA
HETATM   28  H   UNK N   1      41.114  41.785  52.008  0.00  0.00     0.218 HD
ENDBRANCH  22  27
ENDBRANCH   6  19
TORSDOF 6
ENDMDL
MODEL 2
REMARK VINA RESULT:      -7.5      0.086      8.909
REMARK  6 active torsions:
REMARK  status: ('A' for Active; 'I' for Inactive)
REMARK    1  A    between atoms: C_2  and  C_3 
REMARK    2  A    between atoms: C_5  and  O_6 
REMARK    3  A    between atoms: C_8  and  O_9 
REMARK    4  A    between atoms: C_16  and  C_17 
REMARK    5  A    between atoms: C_19  and  O_20 
REMARK    6  A    between atoms: C_22  and  O_23 
ROOT
HETATM    1  O   UNK N   1      42.333  46.556  47.068  0.00  0.00    -0.380 OA
HETATM    2  C   UNK N   1      41.293  46.631  48.034  0.00  0.00     0.161 C 
HETATM    3  C   UNK N   1      39.953  46.526  47.274  0.00  0.00     0.052 C 
HETATM    4  C   UNK N   1      38.895  47.544  47.661  0.00  0.00     0.176 C 
HETATM    5  O   UNK N   1      39.318  48.796  47.166  0.00  0.00    -0.380 OA
HETATM    6  C   UNK N   1      40.222  48.541  46.098  0.00  0.00     0.161 C 
HETATM    7  C   UNK N   1      40.313  47.008  45.934  0.00  0.00     0.052 C 
HETATM    8  C   UNK N   1      41.716  46.448  45.802  0.00  0.00     0.176 C 
ENDROOT
BRANCH   2   9
HETATM    9  C   UNK N   1      41.416  45.531  49.083  0.00  0.00    -0.026 A 
HETATM   10  C   UNK N   1      41.842  45.841  50.388  0.00  0.00     0.049 A 
HETATM   11  C   UNK N   1      41.936  44.836  51.376  0.00  0.00     0.101 A 
HETATM   12  C   UNK N   1      41.606  43.509  51.043  0.00  0.00     0.099 A 
HETATM   13  C   UNK N   1      41.189  43.200  49.745  0.00  0.00     0.040 A 
HETATM   14  C   UNK N   1      41.092  44.197  48.774  0.00  0.00     0.012 A 
BRANCH  11  15
HETATM   15  O   UNK N   1      42.332  45.115  52.649  0.00  0.00    -0.353 OA
HETATM   16  C   UNK N   1      41.496  45.498  53.679  0.00  0.00     0.210 C 
ENDBRANCH  11  15
BRANCH  12  17
HETATM   17  O   UNK N   1      41.683  42.519  51.958  0.00  0.00    -0.358 OA
HETATM   18  H   UNK N   1      41.043  42.425  52.676  0.00  0.00     0.218 HD
ENDBRANCH  12  17
ENDBRANCH   2   9
BRANCH   6  19
HETATM   19  C   UNK N   1      39.770  49.204  44.802  0.00  0.00    -0.026 A 
HETATM   20  C   UNK N   1      38.670  48.699  44.083  0.00  0.00     0.049 A 
HETATM   21  C   UNK N   1      38.257  49.297  42.875  0.00  0.00     0.101 A 
HETATM   22  C   UNK N   1      38.959  50.413  42.383  0.00  0.00     0.099 A 
HETATM   23  C   UNK N   1      40.052  50.918  43.096  0.00  0.00     0.040 A 
HETATM   24  C   UNK N   1      40.453  50.323  44.295  0.00  0.00     0.012 A 
BRANCH  21  25
HETATM   25  O   UNK N   1      37.193  48.819  42.170  0.00  0.00    -0.353 OA
HETATM   26  C   UNK N   1      36.300  47.871  42.629  0.00  0.00     0.210 C 
ENDBRANCH  21  25
BRANCH  22  27
HETATM   27  O   UNK N   1      38.597  51.013  41.229  0.00  0.00    -0.358 OA
HETATM   28  H   UNK N   1      38.193  51.891  41.205  0.00  0.00     0.218 HD
ENDBRANCH  22  27
ENDBRANCH   6  19
TORSDOF 6
ENDMDL
MODEL 3
REMARK VINA RESULT:      -7.2      1.285      2.011
REMARK  6 active torsions:
REMARK  status: ('A' for Active; 'I' for Inactive)
REMARK    1  A    between atoms: C_2  and  C_3 
REMARK    2  A    between atoms: C_5  and  O_6 
REMARK    3  A    between atoms: C_8  and  O_9 
REMARK    4  A    between atoms: C_16  and  C_17 
REMARK    5  A    between atoms: C_19  and  O_20 
REMARK    6  A    between atoms: C_22  and  O_23 
ROOT
HETATM    1  O   UNK N   1      42.032  47.844  46.129  0.00  0.00    -0.380 OA
HETATM    2  C   UNK N   1      40.639  47.708  45.883  0.00  0.00     0.161 C 
HETATM    3  C   UNK N   1      39.912  47.922  47.229  0.00  0.00     0.052 C 
HETATM    4  C   UNK N   1      38.839  46.903  47.567  0.00  0.00     0.176 C 
HETATM    5  O   UNK N   1      39.494  45.691  47.874  0.00  0.00    -0.380 OA
HETATM    6  C   UNK N   1      40.822  46.020  48.262  0.00  0.00     0.161 C 
HETATM    7  C   UNK N   1      40.946  47.558  48.206  0.00  0.00     0.052 C 
HETATM    8  C   UNK N   1      42.187  48.088  47.512  0.00  0.00     0.176 C 
ENDROOT
BRANCH   2   9
HETATM    9  C   UNK N   1      40.151  48.701  44.833  0.00  0.00    -0.026 A 
HETATM   10  C   UNK N   1      39.015  48.409  44.056  0.00  0.00     0.049 A 
HETATM   11  C   UNK N   1      38.538  49.330  43.097  0.00  0.00     0.101 A 
HETATM   12  C   UNK N   1      39.217  50.549  42.916  0.00  0.00     0.099 A 
HETATM   13  C   UNK N   1      40.350  50.836  43.683  0.00  0.00     0.040 A 
HETATM   14  C   UNK N   1      40.813  49.926  44.633  0.00  0.00     0.012 A 
BRANCH  11  15
HETATM   15  O   UNK N   1      37.432  49.075  42.344  0.00  0.00    -0.353 OA
HETATM   16  C   UNK N   1      36.464  48.136  42.641  0.00  0.00     0.210 C 
ENDBRANCH  11  15
BRANCH  12  17
HETATM   17  O   UNK N   1      38.795  51.456  42.010  0.00  0.00    -0.358 OA
HETATM   18  H   UNK N   1      38.120  52.118  42.213  0.00  0.00     0.218 HD
ENDBRANCH  12  17
ENDBRANCH   2   9
BRANCH   6  19
HETATM   19  C   UNK N   1      41.152  45.494  49.654  0.00  0.00    -0.026 A 
HETATM   20  C   UNK N   1      40.411  44.438  50.217  0.00  0.00     0.049 A 
HETATM   21  C   UNK N   1      40.699  43.957  51.510  0.00  0.00     0.101 A 
HETATM   22  C   UNK N   1      41.743  44.548  52.248  0.00  0.00     0.099 A 
HETATM   23  C   UNK N   1      42.481  45.598  51.691  0.00  0.00     0.040 A 
HETATM   24  C   UNK N   1      42.193  46.066  50.407  0.00  0.00     0.012 A 
BRANCH  21  25
HETATM   25  O   UNK N   1      39.991  42.935  52.066  0.00  0.00    -0.353 OA
HETATM   26  C   UNK N   1      39.442  42.950  53.333  0.00  0.00     0.210 C 
ENDBRANCH  21  25
BRANCH  22  27
HETATM   27  O   UNK N   1      42.049  44.120  53.491  0.00  0.00    -0.358 OA
HETATM   28  H   UNK N   1      42.861  43.632  53.687  0.00  0.00     0.218 HD
ENDBRANCH  22  27
ENDBRANCH   6  19
TORSDOF 6
ENDMDL
MODEL 4
REMARK VINA RESULT:      -7.2      1.279      8.770
REMARK  6 active torsions:
REMARK  status: ('A' for Active; 'I' for Inactive)
REMARK    1  A    between atoms: C_2  and  C_3 
REMARK    2  A    between atoms: C_5  and  O_6 
REMARK    3  A    between atoms: C_8  and  O_9 
REMARK    4  A    between atoms: C_16  and  C_17 
REMARK    5  A    between atoms: C_19  and  O_20 
REMARK    6  A    between atoms: C_22  and  O_23 
ROOT
HETATM    1  O   UNK N   1      39.522  45.673  47.816  0.00  0.00    -0.380 OA
HETATM    2  C   UNK N   1      40.823  46.057  48.237  0.00  0.00     0.161 C 
HETATM    3  C   UNK N   1      40.882  47.600  48.197  0.00  0.00     0.052 C 
HETATM    4  C   UNK N   1      42.112  48.194  47.534  0.00  0.00     0.176 C 
HETATM    5  O   UNK N   1      41.999  47.954  46.148  0.00  0.00    -0.380 OA
HETATM    6  C   UNK N   1      40.618  47.757  45.869  0.00  0.00     0.161 C 
HETATM    7  C   UNK N   1      39.854  47.927  47.201  0.00  0.00     0.052 C 
HETATM    8  C   UNK N   1      38.821  46.858  47.501  0.00  0.00     0.176 C 
ENDROOT
BRANCH   2   9
HETATM    9  C   UNK N   1      41.143  45.533  49.633  0.00  0.00    -0.026 A 
HETATM   10  C   UNK N   1      40.386  44.484  50.187  0.00  0.00     0.049 A 
HETATM   11  C   UNK N   1      40.687  43.972  51.469  0.00  0.00     0.101 A 
HETATM   12  C   UNK N   1      41.755  44.528  52.198  0.00  0.00     0.099 A 
HETATM   13  C   UNK N   1      42.504  45.574  51.651  0.00  0.00     0.040 A 
HETATM   14  C   UNK N   1      42.206  46.071  50.383  0.00  0.00     0.012 A 
BRANCH  11  15
HETATM   15  O   UNK N   1      39.977  42.948  52.019  0.00  0.00    -0.353 OA
HETATM   16  C   UNK N   1      39.442  42.942  53.291  0.00  0.00     0.210 C 
ENDBRANCH  11  15
BRANCH  12  17
HETATM   17  O   UNK N   1      42.075  44.068  53.427  0.00  0.00    -0.358 OA
HETATM   18  H   UNK N   1      42.488  43.205  53.567  0.00  0.00     0.218 HD
ENDBRANCH  12  17
ENDBRANCH   2   9
BRANCH   6  19
HETATM   19  C   UNK N   1      40.108  48.735  44.816  0.00  0.00    -0.026 A 
HETATM   20  C   UNK N   1      38.969  48.431  44.047  0.00  0.00     0.049 A 
HETATM   21  C   UNK N   1      38.501  49.321  43.060  0.00  0.00     0.101 A 
HETATM   22  C   UNK N   1      39.188  50.530  42.842  0.00  0.00     0.099 A 
HETATM   23  C   UNK N   1      40.320  50.836  43.605  0.00  0.00     0.040 A 
HETATM   24  C   UNK N   1      40.775  49.950  44.585  0.00  0.00     0.012 A 
BRANCH  21  25
HETATM   25  O   UNK N   1      37.399  49.041  42.308  0.00  0.00    -0.353 OA
HETATM   26  C   UNK N   1      36.437  48.106  42.634  0.00  0.00     0.210 C 
ENDBRANCH  21  25
BRANCH  22  27
HETATM   27  O   UNK N   1      38.775  51.410  41.904  0.00  0.00    -0.358 OA
HETATM   28  H   UNK N   1      38.040  51.220  41.303  0.00  0.00     0.218 HD
ENDBRANCH  22  27
ENDBRANCH   6  19
TORSDOF 6
ENDMDL
MODEL 5
REMARK VINA RESULT:      -6.8      0.677      1.805
REMARK  6 active torsions:
REMARK  status: ('A' for Active; 'I' for Inactive)
REMARK    1  A    between atoms: C_2  and  C_3 
REMARK    2  A    between atoms: C_5  and  O_6 
REMARK    3  A    between atoms: C_8  and  O_9 
REMARK    4  A    between atoms: C_16  and  C_17 
REMARK    5  A    between atoms: C_19  and  O_20 
REMARK    6  A    between atoms: C_22  and  O_23 
ROOT
HETATM    1  O   UNK N   1      39.017  48.624  47.052  0.00  0.00    -0.380 OA
HETATM    2  C   UNK N   1      39.955  48.415  46.005  0.00  0.00     0.161 C 
HETATM    3  C   UNK N   1      40.161  46.891  45.871  0.00  0.00     0.052 C 
HETATM    4  C   UNK N   1      41.604  46.428  45.776  0.00  0.00     0.176 C 
HETATM    5  O   UNK N   1      42.186  46.605  47.048  0.00  0.00    -0.380 OA
HETATM    6  C   UNK N   1      41.125  46.623  47.995  0.00  0.00     0.161 C 
HETATM    7  C   UNK N   1      39.811  46.407  47.213  0.00  0.00     0.052 C 
HETATM    8  C   UNK N   1      38.679  47.353  47.566  0.00  0.00     0.176 C 
ENDROOT
BRANCH   2   9
HETATM    9  C   UNK N   1      39.478  49.022  44.690  0.00  0.00    -0.026 A 
HETATM   10  C   UNK N   1      40.102  50.172  44.173  0.00  0.00     0.049 A 
HETATM   11  C   UNK N   1      39.687  50.730  42.943  0.00  0.00     0.101 A 
HETATM   12  C   UNK N   1      38.629  50.127  42.236  0.00  0.00     0.099 A 
HETATM   13  C   UNK N   1      38.005  48.988  42.753  0.00  0.00     0.040 A 
HETATM   14  C   UNK N   1      38.423  48.438  43.964  0.00  0.00     0.012 A 
BRANCH  11  15
HETATM   15  O   UNK N   1      40.285  51.834  42.416  0.00  0.00    -0.353 OA
HETATM   16  C   UNK N   1      40.059  53.134  42.822  0.00  0.00     0.210 C 
ENDBRANCH  11  15
BRANCH  12  17
HETATM   17  O   UNK N   1      38.201  50.629  41.058  0.00  0.00    -0.358 OA
HETATM   18  H   UNK N   1      38.314  51.559  40.818  0.00  0.00     0.218 HD
ENDBRANCH  12  17
ENDBRANCH   2   9
BRANCH   6  19
HETATM   19  C   UNK N   1      41.305  45.556  49.068  0.00  0.00    -0.026 A 
HETATM   20  C   UNK N   1      41.750  45.903  50.359  0.00  0.00     0.049 A 
HETATM   21  C   UNK N   1      41.936  44.920  51.351  0.00  0.00     0.101 A 
HETATM   22  C   UNK N   1      41.674  43.572  51.043  0.00  0.00     0.099 A 
HETATM   23  C   UNK N   1      41.232  43.223  49.762  0.00  0.00     0.040 A 
HETATM   24  C   UNK N   1      41.045  44.204  48.784  0.00  0.00     0.012 A 
BRANCH  21  25
HETATM   25  O   UNK N   1      42.364  45.241  52.604  0.00  0.00    -0.353 OA
HETATM   26  C   UNK N   1      41.539  45.552  53.667  0.00  0.00     0.210 C 
ENDBRANCH  21  25
BRANCH  22  27
HETATM   27  O   UNK N   1      41.843  42.598  51.964  0.00  0.00    -0.358 OA
HETATM   28  H   UNK N   1      41.739  41.660  51.752  0.00  0.00     0.218 HD
ENDBRANCH  22  27
ENDBRANCH   6  19
TORSDOF 6
ENDMDL
MODEL 6
REMARK VINA RESULT:      -5.8      1.445      8.756
REMARK  6 active torsions:
REMARK  status: ('A' for Active; 'I' for Inactive)
REMARK    1  A    between atoms: C_2  and  C_3 
REMARK    2  A    between atoms: C_5  and  O_6 
REMARK    3  A    between atoms: C_8  and  O_9 
REMARK    4  A    between atoms: C_16  and  C_17 
REMARK    5  A    between atoms: C_19  and  O_20 
REMARK    6  A    between atoms: C_22  and  O_23 
ROOT
HETATM    1  O   UNK N   1      39.405  45.389  47.753  0.00  0.00    -0.380 OA
HETATM    2  C   UNK N   1      40.651  45.960  48.129  0.00  0.00     0.161 C 
HETATM    3  C   UNK N   1      40.500  47.494  48.032  0.00  0.00     0.052 C 
HETATM    4  C   UNK N   1      41.626  48.222  47.319  0.00  0.00     0.176 C 
HETATM    5  O   UNK N   1      41.519  47.916  45.946  0.00  0.00    -0.380 OA
HETATM    6  C   UNK N   1      40.172  47.526  45.708  0.00  0.00     0.161 C 
HETATM    7  C   UNK N   1      39.419  47.643  47.050  0.00  0.00     0.052 C 
HETATM    8  C   UNK N   1      38.545  46.457  47.414  0.00  0.00     0.176 C 
ENDROOT
BRANCH   2   9
HETATM    9  C   UNK N   1      41.066  45.537  49.534  0.00  0.00    -0.026 A 
HETATM   10  C   UNK N   1      40.392  44.488  50.186  0.00  0.00     0.049 A 
HETATM   11  C   UNK N   1      40.783  44.069  51.477  0.00  0.00     0.101 A 
HETATM   12  C   UNK N   1      41.854  44.720  52.117  0.00  0.00     0.099 A 
HETATM   13  C   UNK N   1      42.518  45.767  51.473  0.00  0.00     0.040 A 
HETATM   14  C   UNK N   1      42.133  46.172  50.195  0.00  0.00     0.012 A 
BRANCH  11  15
HETATM   15  O   UNK N   1      40.155  43.046  52.121  0.00  0.00    -0.353 OA
HETATM   16  C   UNK N   1      39.543  43.136  53.356  0.00  0.00     0.210 C 
ENDBRANCH  11  15
BRANCH  12  17
HETATM   17  O   UNK N   1      42.257  44.351  53.352  0.00  0.00    -0.358 OA
HETATM   18  H   UNK N   1      42.622  44.981  53.989  0.00  0.00     0.218 HD
ENDBRANCH  12  17
ENDBRANCH   2   9
BRANCH   6  19
HETATM   19  C   UNK N   1      39.515  48.385  44.634  0.00  0.00    -0.026 A 
HETATM   20  C   UNK N   1      40.184  49.503  44.100  0.00  0.00     0.049 A 
HETATM   21  C   UNK N   1      39.576  50.313  43.119  0.00  0.00     0.101 A 
HETATM   22  C   UNK N   1      38.279  49.997  42.673  0.00  0.00     0.099 A 
HETATM   23  C   UNK N   1      37.612  48.887  43.201  0.00  0.00     0.040 A 
HETATM   24  C   UNK N   1      38.222  48.086  44.169  0.00  0.00     0.012 A 
BRANCH  21  25
HETATM   25  O   UNK N   1      40.213  51.396  42.593  0.00  0.00    -0.353 OA
HETATM   26  C   UNK N   1      39.898  52.712  42.871  0.00  0.00     0.210 C 
ENDBRANCH  21  25
BRANCH  22  27
HETATM   27  O   UNK N   1      37.660  50.749  41.737  0.00  0.00    -0.358 OA
HETATM   28  H   UNK N   1      36.808  51.178  41.898  0.00  0.00     0.218 HD
ENDBRANCH  22  27
ENDBRANCH   6  19
TORSDOF 6
ENDMDL
MODEL 7
REMARK VINA RESULT:      -5.2     13.406     16.903
REMARK  6 active torsions:
REMARK  status: ('A' for Active; 'I' for Inactive)
REMARK    1  A    between atoms: C_2  and  C_3 
REMARK    2  A    between atoms: C_5  and  O_6 
REMARK    3  A    between atoms: C_8  and  O_9 
REMARK    4  A    between atoms: C_16  and  C_17 
REMARK    5  A    between atoms: C_19  and  O_20 
REMARK    6  A    between atoms: C_22  and  O_23 
ROOT
HETATM    1  O   UNK N   1      29.467  41.570  58.206  0.00  0.00    -0.380 OA
HETATM    2  C   UNK N   1      30.801  42.002  57.975  0.00  0.00     0.161 C 
HETATM    3  C   UNK N   1      30.759  43.017  56.811  0.00  0.00     0.052 C 
HETATM    4  C   UNK N   1      31.798  42.813  55.723  0.00  0.00     0.176 C 
HETATM    5  O   UNK N   1      31.431  41.656  55.004  0.00  0.00    -0.380 OA
HETATM    6  C   UNK N   1      30.037  41.462  55.206  0.00  0.00     0.161 C 
HETATM    7  C   UNK N   1      29.539  42.623  56.095  0.00  0.00     0.052 C 
HETATM    8  C   UNK N   1      28.650  42.220  57.256  0.00  0.00     0.176 C 
ENDROOT
BRANCH   2   9
HETATM    9  C   UNK N   1      31.418  42.625  59.223  0.00  0.00    -0.026 A 
HETATM   10  C   UNK N   1      30.770  43.688  59.879  0.00  0.00     0.049 A 
HETATM   11  C   UNK N   1      31.317  44.257  61.050  0.00  0.00     0.101 A 
HETATM   12  C   UNK N   1      32.531  43.755  61.557  0.00  0.00     0.099 A 
HETATM   13  C   UNK N   1      33.178  42.703  60.902  0.00  0.00     0.040 A 
HETATM   14  C   UNK N   1      32.630  42.141  59.750  0.00  0.00     0.012 A 
BRANCH  11  15
HETATM   15  O   UNK N   1      30.701  45.277  61.709  0.00  0.00    -0.353 OA
HETATM   16  C   UNK N   1      30.237  46.439  61.126  0.00  0.00     0.210 C 
ENDBRANCH  11  15
BRANCH  12  17
HETATM   17  O   UNK N   1      33.088  44.272  62.673  0.00  0.00    -0.358 OA
HETATM   18  H   UNK N   1      33.504  43.720  63.349  0.00  0.00     0.218 HD
ENDBRANCH  12  17
ENDBRANCH   2   9
BRANCH   6  19
HETATM   19  C   UNK N   1      29.274  41.417  53.887  0.00  0.00    -0.026 A 
HETATM   20  C   UNK N   1      28.202  40.521  53.708  0.00  0.00     0.049 A 
HETATM   21  C   UNK N   1      27.503  40.461  52.486  0.00  0.00     0.101 A 
HETATM   22  C   UNK N   1      27.888  41.308  51.430  0.00  0.00     0.099 A 
HETATM   23  C   UNK N   1      28.952  42.199  51.604  0.00  0.00     0.040 A 
HETATM   24  C   UNK N   1      29.638  42.257  52.821  0.00  0.00     0.012 A 
BRANCH  21  25
HETATM   25  O   UNK N   1      26.463  39.601  52.300  0.00  0.00    -0.353 OA
HETATM   26  C   UNK N   1      25.192  39.772  52.813  0.00  0.00     0.210 C 
ENDBRANCH  21  25
BRANCH  22  27
HETATM   27  O   UNK N   1      27.247  41.280  50.242  0.00  0.00    -0.358 OA
HETATM   28  H   UNK N   1      26.392  41.712  50.103  0.00  0.00     0.218 HD
ENDBRANCH  22  27
ENDBRANCH   6  19
TORSDOF 6
ENDMDL
MODEL 8
REMARK VINA RESULT:      -5.2     10.120     16.303
REMARK  6 active torsions:
REMARK  status: ('A' for Active; 'I' for Inactive)
REMARK    1  A    between atoms: C_2  and  C_3 
REMARK    2  A    between atoms: C_5  and  O_6 
REMARK    3  A    between atoms: C_8  and  O_9 
REMARK    4  A    between atoms: C_16  and  C_17 
REMARK    5  A    between atoms: C_19  and  O_20 
REMARK    6  A    between atoms: C_22  and  O_23 
ROOT
HETATM    1  O   UNK N   1      30.727  55.568  42.864  0.00  0.00    -0.380 OA
HETATM    2  C   UNK N   1      30.528  54.166  42.753  0.00  0.00     0.161 C 
HETATM    3  C   UNK N   1      30.437  53.833  41.247  0.00  0.00     0.052 C 
HETATM    4  C   UNK N   1      29.291  52.924  40.842  0.00  0.00     0.176 C 
HETATM    5  O   UNK N   1      28.100  53.671  40.963  0.00  0.00    -0.380 OA
HETATM    6  C   UNK N   1      28.458  55.045  40.885  0.00  0.00     0.161 C 
HETATM    7  C   UNK N   1      29.986  55.107  40.671  0.00  0.00     0.052 C 
HETATM    8  C   UNK N   1      30.729  56.092  41.553  0.00  0.00     0.176 C 
ENDROOT
BRANCH   2   9
HETATM    9  C   UNK N   1      31.651  53.380  43.421  0.00  0.00    -0.026 A 
HETATM   10  C   UNK N   1      31.891  52.041  43.060  0.00  0.00     0.049 A 
HETATM   11  C   UNK N   1      32.944  51.310  43.653  0.00  0.00     0.101 A 
HETATM   12  C   UNK N   1      33.755  51.932  44.621  0.00  0.00     0.099 A 
HETATM   13  C   UNK N   1      33.512  53.260  44.984  0.00  0.00     0.040 A 
HETATM   14  C   UNK N   1      32.475  53.979  44.392  0.00  0.00     0.012 A 
BRANCH  11  15
HETATM   15  O   UNK N   1      33.204  50.018  43.309  0.00  0.00    -0.353 OA
HETATM   16  C   UNK N   1      32.304  49.152  42.720  0.00  0.00     0.210 C 
ENDBRANCH  11  15
BRANCH  12  17
HETATM   17  O   UNK N   1      34.771  51.267  45.212  0.00  0.00    -0.358 OA
HETATM   18  H   UNK N   1      35.118  51.516  46.080  0.00  0.00     0.218 HD
ENDBRANCH  12  17
ENDBRANCH   2   9
BRANCH   6  19
HETATM   19  C   UNK N   1      27.718  55.761  39.762  0.00  0.00    -0.026 A 
HETATM   20  C   UNK N   1      28.394  56.145  38.588  0.00  0.00     0.049 A 
HETATM   21  C   UNK N   1      27.721  56.823  37.552  0.00  0.00     0.101 A 
HETATM   22  C   UNK N   1      26.353  57.121  37.699  0.00  0.00     0.099 A 
HETATM   23  C   UNK N   1      25.678  56.740  38.864  0.00  0.00     0.040 A 
HETATM   24  C   UNK N   1      26.351  56.064  39.885  0.00  0.00     0.012 A 
BRANCH  21  25
HETATM   25  O   UNK N   1      28.362  57.200  36.410  0.00  0.00    -0.353 OA
HETATM   26  C   UNK N   1      29.426  58.078  36.353  0.00  0.00     0.210 C 
ENDBRANCH  21  25
BRANCH  22  27
HETATM   27  O   UNK N   1      25.672  57.772  36.731  0.00  0.00    -0.358 OA
HETATM   28  H   UNK N   1      25.297  57.316  35.964  0.00  0.00     0.218 HD
ENDBRANCH  22  27
ENDBRANCH   6  19
TORSDOF 6
ENDMDL
MODEL 9
REMARK VINA RESULT:      -5.1     10.188     14.319
REMARK  6 active torsions:
REMARK  status: ('A' for Active; 'I' for Inactive)
REMARK    1  A    between atoms: C_2  and  C_3 
REMARK    2  A    between atoms: C_5  and  O_6 
REMARK    3  A    between atoms: C_8  and  O_9 
REMARK    4  A    between atoms: C_16  and  C_17 
REMARK    5  A    between atoms: C_19  and  O_20 
REMARK    6  A    between atoms: C_22  and  O_23 
ROOT
HETATM    1  O   UNK N   1      28.015  53.709  40.943  0.00  0.00    -0.380 OA
HETATM    2  C   UNK N   1      28.388  55.073  40.804  0.00  0.00     0.161 C 
HETATM    3  C   UNK N   1      29.913  55.109  40.559  0.00  0.00     0.052 C 
HETATM    4  C   UNK N   1      30.688  56.117  41.388  0.00  0.00     0.176 C 
HETATM    5  O   UNK N   1      30.702  55.645  42.718  0.00  0.00    -0.380 OA
HETATM    6  C   UNK N   1      30.482  54.241  42.665  0.00  0.00     0.161 C 
HETATM    7  C   UNK N   1      30.359  53.854  41.176  0.00  0.00     0.052 C 
HETATM    8  C   UNK N   1      29.196  52.943  40.832  0.00  0.00     0.176 C 
ENDROOT
BRANCH   2   9
HETATM    9  C   UNK N   1      27.634  55.753  39.666  0.00  0.00    -0.026 A 
HETATM   10  C   UNK N   1      28.329  56.218  38.534  0.00  0.00     0.049 A 
HETATM   11  C   UNK N   1      27.640  56.826  37.461  0.00  0.00     0.101 A 
HETATM   12  C   UNK N   1      26.242  56.973  37.536  0.00  0.00     0.099 A 
HETATM   13  C   UNK N   1      25.552  56.517  38.663  0.00  0.00     0.040 A 
HETATM   14  C   UNK N   1      26.237  55.911  39.716  0.00  0.00     0.012 A 
BRANCH  11  15
HETATM   15  O   UNK N   1      28.289  57.271  36.350  0.00  0.00    -0.353 OA
HETATM   16  C   UNK N   1      29.413  58.073  36.350  0.00  0.00     0.210 C 
ENDBRANCH  11  15
BRANCH  12  17
HETATM   17  O   UNK N   1      25.546  57.550  36.533  0.00  0.00    -0.358 OA
HETATM   18  H   UNK N   1      25.800  58.399  36.145  0.00  0.00     0.218 HD
ENDBRANCH  12  17
ENDBRANCH   2   9
BRANCH   6  19
HETATM   19  C   UNK N   1      31.606  53.466  43.342  0.00  0.00    -0.026 A 
HETATM   20  C   UNK N   1      31.864  52.125  42.996  0.00  0.00     0.049 A 
HETATM   21  C   UNK N   1      32.890  51.396  43.629  0.00  0.00     0.101 A 
HETATM   22  C   UNK N   1      33.665  52.021  44.624  0.00  0.00     0.099 A 
HETATM   23  C   UNK N   1      33.413  53.353  44.970  0.00  0.00     0.040 A 
HETATM   24  C   UNK N   1      32.396  54.071  44.335  0.00  0.00     0.012 A 
BRANCH  21  25
HETATM   25  O   UNK N   1      33.151  50.099  43.303  0.00  0.00    -0.353 OA
HETATM   26  C   UNK N   1      32.246  49.232  42.724  0.00  0.00     0.210 C 
ENDBRANCH  21  25
BRANCH  22  27
HETATM   27  O   UNK N   1      34.656  51.357  45.258  0.00  0.00    -0.358 OA
HETATM   28  H   UNK N   1      35.546  51.276  44.887  0.00  0.00     0.218 HD
ENDBRANCH  22  27
ENDBRANCH   6  19
TORSDOF 6
ENDMDL
