MODEL 1
REMARK VINA RESULT:      -8.2      0.000      0.000
REMARK  12 active torsions:
REMARK  status: ('A' for Active; 'I' for Inactive)
REMARK    1  A    between atoms: C_2  and  O_3 
REMARK    2  A    between atoms: C_2  and  C_20 
REMARK    3  A    between atoms: O_3  and  C_4 
REMARK    4  A    between atoms: C_4  and  C_5 
REMARK    5  A    between atoms: C_4  and  C_9 
REMARK    6  A    between atoms: C_5  and  O_7 
REMARK    7  A    between atoms: C_9  and  C_10 
REMARK    8  A    between atoms: C_12  and  O_13 
REMARK    9  A    between atoms: C_15  and  O_16 
REMARK   10  A    between atoms: C_21  and  C_22 
REMARK   11  A    between atoms: C_24  and  O_25 
REMARK   12  A    between atoms: C_27  and  O_28 
ROOT
HETATM    1  C   UNK N   1      41.189  46.633  46.197  0.00  0.00     0.233 C 
ENDROOT
BRANCH   1   2
HETATM    2  O   UNK N   1      42.326  47.321  46.598  0.00  0.00    -0.301 OA
BRANCH   2   3
HETATM    3  C   UNK N   1      42.722  47.565  47.873  0.00  0.00     0.283 C 
HETATM    4  O   UNK N   1      43.645  48.334  48.108  0.00  0.00    -0.260 OA
BRANCH   3   5
HETATM    5  C   UNK N   1      42.021  46.852  48.962  0.00  0.00     0.083 C 
HETATM    6  C   UNK N   1      42.672  46.272  49.991  0.00  0.00     0.017 C 
BRANCH   6   7
HETATM    7  C   UNK N   1      41.992  45.502  51.078  0.00  0.00    -0.033 A 
HETATM    8  C   UNK N   1      40.980  44.595  50.721  0.00  0.00     0.050 A 
HETATM    9  C   UNK N   1      40.275  43.874  51.693  0.00  0.00     0.099 A 
HETATM   10  C   UNK N   1      40.596  44.049  53.063  0.00  0.00     0.098 A 
HETATM   11  C   UNK N   1      41.614  44.938  53.418  0.00  0.00     0.040 A 
HETATM   12  C   UNK N   1      42.306  45.661  52.445  0.00  0.00     0.014 A 
BRANCH   9  13
HETATM   13  O   UNK N   1      39.298  43.033  51.282  0.00  0.00    -0.358 OA
HETATM   14  H   UNK N   1      38.555  43.296  50.726  0.00  0.00     0.218 HD
ENDBRANCH   9  13
BRANCH  10  15
HETATM   15  O   UNK N   1      39.951  43.389  54.052  0.00  0.00    -0.358 OA
HETATM   16  H   UNK N   1      39.086  42.974  53.954  0.00  0.00     0.218 HD
ENDBRANCH  10  15
ENDBRANCH   6   7
ENDBRANCH   3   5
ENDBRANCH   2   3
ENDBRANCH   1   2
BRANCH   1  17
HETATM   17  C   UNK N   1      40.069  47.578  45.820  0.00  0.00     0.171 C 
HETATM   18  O   UNK N   1      39.858  47.858  44.649  0.00  0.00    -0.648 OA
BRANCH  17  19
HETATM   19  O   UNK N   1      39.292  48.109  46.788  0.00  0.00    -0.774 OA
HETATM   20  H   UNK N   1      38.437  48.512  46.576  0.00  0.00     0.167 HD
ENDBRANCH  17  19
ENDBRANCH   1  17
BRANCH   1  21
HETATM   21  C   UNK N   1      41.579  45.782  44.977  0.00  0.00     0.082 C 
BRANCH  21  22
HETATM   22  C   UNK N   1      41.962  44.394  45.424  0.00  0.00    -0.052 A 
HETATM   23  C   UNK N   1      42.695  43.555  44.570  0.00  0.00     0.046 A 
HETATM   24  C   UNK N   1      43.100  42.287  44.997  0.00  0.00     0.099 A 
HETATM   25  C   UNK N   1      42.752  41.839  46.287  0.00  0.00     0.098 A 
HETATM   26  C   UNK N   1      42.011  42.675  47.136  0.00  0.00     0.040 A 
HETATM   27  C   UNK N   1      41.627  43.949  46.711  0.00  0.00     0.010 A 
BRANCH  24  28
HETATM   28  O   UNK N   1      43.830  41.515  44.164  0.00  0.00    -0.358 OA
HETATM   29  H   UNK N   1      44.454  41.888  43.526  0.00  0.00     0.218 HD
ENDBRANCH  24  28
BRANCH  25  30
HETATM   30  O   UNK N   1      43.135  40.614  46.703  0.00  0.00    -0.358 OA
HETATM   31  H   UNK N   1      43.130  39.849  46.109  0.00  0.00     0.218 HD
ENDBRANCH  25  30
ENDBRANCH  21  22
ENDBRANCH   1  21
TORSDOF 12
ENDMDL
MODEL 2
REMARK VINA RESULT:      -7.7      2.322      6.597
REMARK  12 active torsions:
REMARK  status: ('A' for Active; 'I' for Inactive)
REMARK    1  A    between atoms: C_2  and  O_3 
REMARK    2  A    between atoms: C_2  and  C_20 
REMARK    3  A    between atoms: O_3  and  C_4 
REMARK    4  A    between atoms: C_4  and  C_5 
REMARK    5  A    between atoms: C_4  and  C_9 
REMARK    6  A    between atoms: C_5  and  O_7 
REMARK    7  A    between atoms: C_9  and  C_10 
REMARK    8  A    between atoms: C_12  and  O_13 
REMARK    9  A    between atoms: C_15  and  O_16 
REMARK   10  A    between atoms: C_21  and  C_22 
REMARK   11  A    between atoms: C_24  and  O_25 
REMARK   12  A    between atoms: C_27  and  O_28 
ROOT
HETATM    1  C   UNK N   1      40.793  45.296  48.322  0.00  0.00     0.233 C 
ENDROOT
BRANCH   1   2
HETATM    2  O   UNK N   1      40.858  46.683  48.327  0.00  0.00    -0.301 OA
BRANCH   2   3
HETATM    3  C   UNK N   1      41.707  47.461  47.610  0.00  0.00     0.283 C 
HETATM    4  O   UNK N   1      42.817  47.744  48.042  0.00  0.00    -0.260 OA
BRANCH   3   5
HETATM    5  C   UNK N   1      41.237  47.975  46.306  0.00  0.00     0.083 C 
HETATM    6  C   UNK N   1      40.094  48.677  46.168  0.00  0.00     0.017 C 
BRANCH   6   7
HETATM    7  C   UNK N   1      39.569  49.165  44.855  0.00  0.00    -0.033 A 
HETATM    8  C   UNK N   1      38.466  48.505  44.290  0.00  0.00     0.050 A 
HETATM    9  C   UNK N   1      37.952  48.885  43.043  0.00  0.00     0.099 A 
HETATM   10  C   UNK N   1      38.546  49.964  42.342  0.00  0.00     0.098 A 
HETATM   11  C   UNK N   1      39.634  50.632  42.911  0.00  0.00     0.040 A 
HETATM   12  C   UNK N   1      40.147  50.243  44.150  0.00  0.00     0.014 A 
BRANCH   9  13
HETATM   13  O   UNK N   1      36.901  48.193  42.547  0.00  0.00    -0.358 OA
HETATM   14  H   UNK N   1      36.116  48.601  42.163  0.00  0.00     0.218 HD
ENDBRANCH   9  13
BRANCH  10  15
HETATM   15  O   UNK N   1      38.104  50.378  41.133  0.00  0.00    -0.358 OA
HETATM   16  H   UNK N   1      38.500  51.098  40.627  0.00  0.00     0.218 HD
ENDBRANCH  10  15
ENDBRANCH   6   7
ENDBRANCH   3   5
ENDBRANCH   2   3
ENDBRANCH   1   2
BRANCH   1  17
HETATM   17  C   UNK N   1      39.873  44.776  49.403  0.00  0.00     0.171 C 
HETATM   18  O   UNK N   1      40.278  44.621  50.546  0.00  0.00    -0.648 OA
BRANCH  17  19
HETATM   19  O   UNK N   1      38.588  44.488  49.102  0.00  0.00    -0.774 OA
HETATM   20  H   UNK N   1      38.157  44.878  48.327  0.00  0.00     0.167 HD
ENDBRANCH  17  19
ENDBRANCH   1  17
BRANCH   1  21
HETATM   21  C   UNK N   1      40.262  44.872  46.942  0.00  0.00     0.082 C 
BRANCH  21  22
HETATM   22  C   UNK N   1      41.312  44.072  46.215  0.00  0.00    -0.052 A 
HETATM   23  C   UNK N   1      41.840  42.907  46.795  0.00  0.00     0.046 A 
HETATM   24  C   UNK N   1      42.775  42.131  46.104  0.00  0.00     0.099 A 
HETATM   25  C   UNK N   1      43.207  42.531  44.824  0.00  0.00     0.098 A 
HETATM   26  C   UNK N   1      42.687  43.701  44.249  0.00  0.00     0.040 A 
HETATM   27  C   UNK N   1      41.737  44.461  44.936  0.00  0.00     0.010 A 
BRANCH  24  28
HETATM   28  O   UNK N   1      43.241  41.000  46.676  0.00  0.00    -0.358 OA
HETATM   29  H   UNK N   1      42.759  40.538  47.376  0.00  0.00     0.218 HD
ENDBRANCH  24  28
BRANCH  25  30
HETATM   30  O   UNK N   1      44.114  41.789  44.155  0.00  0.00    -0.358 OA
HETATM   31  H   UNK N   1      43.908  40.899  43.834  0.00  0.00     0.218 HD
ENDBRANCH  25  30
ENDBRANCH  21  22
ENDBRANCH   1  21
TORSDOF 12
ENDMDL
MODEL 3
REMARK VINA RESULT:      -7.7      1.660      2.580
REMARK  12 active torsions:
REMARK  status: ('A' for Active; 'I' for Inactive)
REMARK    1  A    between atoms: C_2  and  O_3 
REMARK    2  A    between atoms: C_2  and  C_20 
REMARK    3  A    between atoms: O_3  and  C_4 
REMARK    4  A    between atoms: C_4  and  C_5 
REMARK    5  A    between atoms: C_4  and  C_9 
REMARK    6  A    between atoms: C_5  and  O_7 
REMARK    7  A    between atoms: C_9  and  C_10 
REMARK    8  A    between atoms: C_12  and  O_13 
REMARK    9  A    between atoms: C_15  and  O_16 
REMARK   10  A    between atoms: C_21  and  C_22 
REMARK   11  A    between atoms: C_24  and  O_25 
REMARK   12  A    between atoms: C_27  and  O_28 
ROOT
HETATM    1  C   UNK N   1      39.778  46.925  45.926  0.00  0.00     0.233 C 
ENDROOT
BRANCH   1   2
HETATM    2  O   UNK N   1      39.026  46.735  47.077  0.00  0.00    -0.301 OA
BRANCH   2   3
HETATM    3  C   UNK N   1      38.558  45.556  47.558  0.00  0.00     0.283 C 
HETATM    4  O   UNK N   1      37.799  44.862  46.894  0.00  0.00    -0.260 OA
BRANCH   3   5
HETATM    5  C   UNK N   1      38.974  45.151  48.918  0.00  0.00     0.083 C 
HETATM    6  C   UNK N   1      40.232  45.321  49.376  0.00  0.00     0.017 C 
BRANCH   6   7
HETATM    7  C   UNK N   1      40.692  44.875  50.727  0.00  0.00    -0.033 A 
HETATM    8  C   UNK N   1      39.942  43.896  51.398  0.00  0.00     0.050 A 
HETATM    9  C   UNK N   1      40.296  43.465  52.685  0.00  0.00     0.099 A 
HETATM   10  C   UNK N   1      41.438  44.016  53.317  0.00  0.00     0.098 A 
HETATM   11  C   UNK N   1      42.195  44.979  52.642  0.00  0.00     0.040 A 
HETATM   12  C   UNK N   1      41.832  45.411  51.366  0.00  0.00     0.014 A 
BRANCH   9  13
HETATM   13  O   UNK N   1      39.518  42.534  53.282  0.00  0.00    -0.358 OA
HETATM   14  H   UNK N   1      38.823  42.038  52.834  0.00  0.00     0.218 HD
ENDBRANCH   9  13
BRANCH  10  15
HETATM   15  O   UNK N   1      41.831  43.649  54.558  0.00  0.00    -0.358 OA
HETATM   16  H   UNK N   1      41.251  43.631  55.328  0.00  0.00     0.218 HD
ENDBRANCH  10  15
ENDBRANCH   6   7
ENDBRANCH   3   5
ENDBRANCH   2   3
ENDBRANCH   1   2
BRANCH   1  17
HETATM   17  C   UNK N   1      39.572  48.307  45.346  0.00  0.00     0.171 C 
HETATM   18  O   UNK N   1      39.715  48.508  44.149  0.00  0.00    -0.648 OA
BRANCH  17  19
HETATM   19  O   UNK N   1      39.219  49.325  46.160  0.00  0.00    -0.774 OA
HETATM   20  H   UNK N   1      39.689  50.171  46.134  0.00  0.00     0.167 HD
ENDBRANCH  17  19
ENDBRANCH   1  17
BRANCH   1  21
HETATM   21  C   UNK N   1      41.255  46.743  46.314  0.00  0.00     0.082 C 
BRANCH  21  22
HETATM   22  C   UNK N   1      41.750  45.405  45.826  0.00  0.00    -0.052 A 
HETATM   23  C   UNK N   1      42.070  44.394  46.746  0.00  0.00     0.046 A 
HETATM   24  C   UNK N   1      42.478  43.132  46.300  0.00  0.00     0.099 A 
HETATM   25  C   UNK N   1      42.589  42.880  44.919  0.00  0.00     0.098 A 
HETATM   26  C   UNK N   1      42.278  43.895  44.000  0.00  0.00     0.040 A 
HETATM   27  C   UNK N   1      41.851  45.147  44.451  0.00  0.00     0.010 A 
BRANCH  24  28
HETATM   28  O   UNK N   1      42.750  42.171  47.208  0.00  0.00    -0.358 OA
HETATM   29  H   UNK N   1      42.520  42.263  48.144  0.00  0.00     0.218 HD
ENDBRANCH  24  28
BRANCH  25  30
HETATM   30  O   UNK N   1      42.987  41.668  44.483  0.00  0.00    -0.358 OA
HETATM   31  H   UNK N   1      42.690  40.850  44.908  0.00  0.00     0.218 HD
ENDBRANCH  25  30
ENDBRANCH  21  22
ENDBRANCH   1  21
TORSDOF 12
ENDMDL
MODEL 4
REMARK VINA RESULT:      -7.6      2.500      5.341
REMARK  12 active torsions:
REMARK  status: ('A' for Active; 'I' for Inactive)
REMARK    1  A    between atoms: C_2  and  O_3 
REMARK    2  A    between atoms: C_2  and  C_20 
REMARK    3  A    between atoms: O_3  and  C_4 
REMARK    4  A    between atoms: C_4  and  C_5 
REMARK    5  A    between atoms: C_4  and  C_9 
REMARK    6  A    between atoms: C_5  and  O_7 
REMARK    7  A    between atoms: C_9  and  C_10 
REMARK    8  A    between atoms: C_12  and  O_13 
REMARK    9  A    between atoms: C_15  and  O_16 
REMARK   10  A    between atoms: C_21  and  C_22 
REMARK   11  A    between atoms: C_24  and  O_25 
REMARK   12  A    between atoms: C_27  and  O_28 
ROOT
HETATM    1  C   UNK N   1      40.757  47.514  45.781  0.00  0.00     0.233 C 
ENDROOT
BRANCH   1   2
HETATM    2  O   UNK N   1      41.100  47.911  47.066  0.00  0.00    -0.301 OA
BRANCH   2   3
HETATM    3  C   UNK N   1      42.312  47.777  47.662  0.00  0.00     0.283 C 
HETATM    4  O   UNK N   1      43.330  48.180  47.114  0.00  0.00    -0.260 OA
BRANCH   3   5
HETATM    5  C   UNK N   1      42.363  47.107  48.979  0.00  0.00     0.083 C 
HETATM    6  C   UNK N   1      41.509  46.123  49.329  0.00  0.00     0.017 C 
BRANCH   6   7
HETATM    7  C   UNK N   1      41.506  45.464  50.671  0.00  0.00    -0.033 A 
HETATM    8  C   UNK N   1      40.519  44.501  50.939  0.00  0.00     0.050 A 
HETATM    9  C   UNK N   1      40.434  43.876  52.191  0.00  0.00     0.099 A 
HETATM   10  C   UNK N   1      41.369  44.209  53.203  0.00  0.00     0.098 A 
HETATM   11  C   UNK N   1      42.362  45.155  52.931  0.00  0.00     0.040 A 
HETATM   12  C   UNK N   1      42.435  45.781  51.686  0.00  0.00     0.014 A 
BRANCH   9  13
HETATM   13  O   UNK N   1      39.446  42.974  52.389  0.00  0.00    -0.358 OA
HETATM   14  H   UNK N   1      39.154  42.670  53.256  0.00  0.00     0.218 HD
ENDBRANCH   9  13
BRANCH  10  15
HETATM   15  O   UNK N   1      41.341  43.648  54.433  0.00  0.00    -0.358 OA
HETATM   16  H   UNK N   1      40.687  43.000  54.720  0.00  0.00     0.218 HD
ENDBRANCH  10  15
ENDBRANCH   6   7
ENDBRANCH   3   5
ENDBRANCH   2   3
ENDBRANCH   1   2
BRANCH   1  17
HETATM   17  C   UNK N   1      40.764  46.008  45.641  0.00  0.00     0.171 C 
HETATM   18  O   UNK N   1      41.623  45.447  44.977  0.00  0.00    -0.648 OA
BRANCH  17  19
HETATM   19  O   UNK N   1      39.814  45.277  46.264  0.00  0.00    -0.774 OA
HETATM   20  H   UNK N   1      39.691  45.332  47.223  0.00  0.00     0.167 HD
ENDBRANCH  17  19
ENDBRANCH   1  17
BRANCH   1  21
HETATM   21  C   UNK N   1      39.343  48.052  45.502  0.00  0.00     0.082 C 
BRANCH  21  22
HETATM   22  C   UNK N   1      39.404  49.121  44.440  0.00  0.00    -0.052 A 
HETATM   23  C   UNK N   1      38.650  48.989  43.263  0.00  0.00     0.046 A 
HETATM   24  C   UNK N   1      38.659  50.001  42.298  0.00  0.00     0.099 A 
HETATM   25  C   UNK N   1      39.448  51.151  42.497  0.00  0.00     0.098 A 
HETATM   26  C   UNK N   1      40.209  51.277  43.669  0.00  0.00     0.040 A 
HETATM   27  C   UNK N   1      40.180  50.272  44.640  0.00  0.00     0.010 A 
BRANCH  24  28
HETATM   28  O   UNK N   1      37.899  49.860  41.191  0.00  0.00    -0.358 OA
HETATM   29  H   UNK N   1      37.151  49.247  41.151  0.00  0.00     0.218 HD
ENDBRANCH  24  28
BRANCH  25  30
HETATM   30  O   UNK N   1      39.465  52.128  41.567  0.00  0.00    -0.358 OA
HETATM   31  H   UNK N   1      40.097  52.122  40.833  0.00  0.00     0.218 HD
ENDBRANCH  25  30
ENDBRANCH  21  22
ENDBRANCH   1  21
TORSDOF 12
ENDMDL
MODEL 5
REMARK VINA RESULT:      -7.4      2.354      6.590
REMARK  12 active torsions:
REMARK  status: ('A' for Active; 'I' for Inactive)
REMARK    1  A    between atoms: C_2  and  O_3 
REMARK    2  A    between atoms: C_2  and  C_20 
REMARK    3  A    between atoms: O_3  and  C_4 
REMARK    4  A    between atoms: C_4  and  C_5 
REMARK    5  A    between atoms: C_4  and  C_9 
REMARK    6  A    between atoms: C_5  and  O_7 
REMARK    7  A    between atoms: C_9  and  C_10 
REMARK    8  A    between atoms: C_12  and  O_13 
REMARK    9  A    between atoms: C_15  and  O_16 
REMARK   10  A    between atoms: C_21  and  C_22 
REMARK   11  A    between atoms: C_24  and  O_25 
REMARK   12  A    between atoms: C_27  and  O_28 
ROOT
HETATM    1  C   UNK N   1      41.345  45.443  48.823  0.00  0.00     0.233 C 
ENDROOT
BRANCH   1   2
HETATM    2  O   UNK N   1      41.138  46.772  48.481  0.00  0.00    -0.301 OA
BRANCH   2   3
HETATM    3  C   UNK N   1      41.894  47.522  47.639  0.00  0.00     0.283 C 
HETATM    4  O   UNK N   1      43.016  47.890  47.961  0.00  0.00    -0.260 OA
BRANCH   3   5
HETATM    5  C   UNK N   1      41.306  47.901  46.337  0.00  0.00     0.083 C 
HETATM    6  C   UNK N   1      40.455  48.938  46.195  0.00  0.00     0.017 C 
BRANCH   6   7
HETATM    7  C   UNK N   1      39.807  49.312  44.900  0.00  0.00    -0.033 A 
HETATM    8  C   UNK N   1      38.705  48.559  44.463  0.00  0.00     0.050 A 
HETATM    9  C   UNK N   1      38.079  48.830  43.239  0.00  0.00     0.099 A 
HETATM   10  C   UNK N   1      38.556  49.892  42.430  0.00  0.00     0.098 A 
HETATM   11  C   UNK N   1      39.642  50.653  42.872  0.00  0.00     0.040 A 
HETATM   12  C   UNK N   1      40.268  50.371  44.088  0.00  0.00     0.014 A 
BRANCH   9  13
HETATM   13  O   UNK N   1      37.035  48.053  42.869  0.00  0.00    -0.358 OA
HETATM   14  H   UNK N   1      36.968  47.603  42.019  0.00  0.00     0.218 HD
ENDBRANCH   9  13
BRANCH  10  15
HETATM   15  O   UNK N   1      38.001  50.204  41.237  0.00  0.00    -0.358 OA
HETATM   16  H   UNK N   1      37.071  50.074  41.019  0.00  0.00     0.218 HD
ENDBRANCH  10  15
ENDBRANCH   6   7
ENDBRANCH   3   5
ENDBRANCH   2   3
ENDBRANCH   1   2
BRANCH   1  17
HETATM   17  C   UNK N   1      40.996  45.179  50.271  0.00  0.00     0.171 C 
HETATM   18  O   UNK N   1      41.697  45.617  51.171  0.00  0.00    -0.648 OA
BRANCH  17  19
HETATM   19  O   UNK N   1      39.894  44.458  50.570  0.00  0.00    -0.774 OA
HETATM   20  H   UNK N   1      39.103  44.882  50.933  0.00  0.00     0.167 HD
ENDBRANCH  17  19
ENDBRANCH   1  17
BRANCH   1  21
HETATM   21  C   UNK N   1      40.443  44.594  47.912  0.00  0.00     0.082 C 
BRANCH  21  22
HETATM   22  C   UNK N   1      41.286  43.858  46.901  0.00  0.00    -0.052 A 
HETATM   23  C   UNK N   1      41.363  44.320  45.578  0.00  0.00     0.046 A 
HETATM   24  C   UNK N   1      42.185  43.675  44.648  0.00  0.00     0.099 A 
HETATM   25  C   UNK N   1      42.925  42.541  45.036  0.00  0.00     0.098 A 
HETATM   26  C   UNK N   1      42.839  42.074  46.357  0.00  0.00     0.040 A 
HETATM   27  C   UNK N   1      42.032  42.735  47.287  0.00  0.00     0.010 A 
BRANCH  24  28
HETATM   28  O   UNK N   1      42.262  44.160  43.390  0.00  0.00    -0.358 OA
HETATM   29  H   UNK N   1      41.636  44.815  43.049  0.00  0.00     0.218 HD
ENDBRANCH  24  28
BRANCH  25  30
HETATM   30  O   UNK N   1      43.715  41.911  44.143  0.00  0.00    -0.358 OA
HETATM   31  H   UNK N   1      44.666  42.084  44.092  0.00  0.00     0.218 HD
ENDBRANCH  25  30
ENDBRANCH  21  22
ENDBRANCH   1  21
TORSDOF 12
ENDMDL
MODEL 6
REMARK VINA RESULT:      -7.3      2.695      7.697
REMARK  12 active torsions:
REMARK  status: ('A' for Active; 'I' for Inactive)
REMARK    1  A    between atoms: C_2  and  O_3 
REMARK    2  A    between atoms: C_2  and  C_20 
REMARK    3  A    between atoms: O_3  and  C_4 
REMARK    4  A    between atoms: C_4  and  C_5 
REMARK    5  A    between atoms: C_4  and  C_9 
REMARK    6  A    between atoms: C_5  and  O_7 
REMARK    7  A    between atoms: C_9  and  C_10 
REMARK    8  A    between atoms: C_12  and  O_13 
REMARK    9  A    between atoms: C_15  and  O_16 
REMARK   10  A    between atoms: C_21  and  C_22 
REMARK   11  A    between atoms: C_24  and  O_25 
REMARK   12  A    between atoms: C_27  and  O_28 
ROOT
HETATM    1  C   UNK N   1      40.549  44.458  47.249  0.00  0.00     0.233 C 
ENDROOT
BRANCH   1   2
HETATM    2  O   UNK N   1      40.390  45.782  47.633  0.00  0.00    -0.301 OA
BRANCH   2   3
HETATM    3  C   UNK N   1      39.263  46.530  47.525  0.00  0.00     0.283 C 
HETATM    4  O   UNK N   1      38.226  46.188  48.078  0.00  0.00    -0.260 OA
BRANCH   3   5
HETATM    5  C   UNK N   1      39.324  47.754  46.698  0.00  0.00     0.083 C 
HETATM    6  C   UNK N   1      39.287  47.726  45.350  0.00  0.00     0.017 C 
BRANCH   6   7
HETATM    7  C   UNK N   1      39.398  48.944  44.489  0.00  0.00    -0.033 A 
HETATM    8  C   UNK N   1      38.707  48.961  43.266  0.00  0.00     0.050 A 
HETATM    9  C   UNK N   1      38.801  50.053  42.393  0.00  0.00     0.099 A 
HETATM   10  C   UNK N   1      39.598  51.169  42.755  0.00  0.00     0.098 A 
HETATM   11  C   UNK N   1      40.272  51.160  43.979  0.00  0.00     0.040 A 
HETATM   12  C   UNK N   1      40.181  50.064  44.839  0.00  0.00     0.014 A 
BRANCH   9  13
HETATM   13  O   UNK N   1      38.127  49.996  41.222  0.00  0.00    -0.358 OA
HETATM   14  H   UNK N   1      37.208  50.267  41.111  0.00  0.00     0.218 HD
ENDBRANCH   9  13
BRANCH  10  15
HETATM   15  O   UNK N   1      39.737  52.253  41.957  0.00  0.00    -0.358 OA
HETATM   16  H   UNK N   1      39.602  52.245  41.002  0.00  0.00     0.218 HD
ENDBRANCH  10  15
ENDBRANCH   6   7
ENDBRANCH   3   5
ENDBRANCH   2   3
ENDBRANCH   1   2
BRANCH   1  17
HETATM   17  C   UNK N   1      40.861  44.337  45.774  0.00  0.00     0.171 C 
HETATM   18  O   UNK N   1      41.890  44.810  45.313  0.00  0.00    -0.648 OA
BRANCH  17  19
HETATM   19  O   UNK N   1      39.996  43.694  44.961  0.00  0.00    -0.774 OA
HETATM   20  H   UNK N   1      39.111  43.448  45.268  0.00  0.00     0.167 HD
ENDBRANCH  17  19
ENDBRANCH   1  17
BRANCH   1  21
HETATM   21  C   UNK N   1      41.715  43.884  48.071  0.00  0.00     0.082 C 
BRANCH  21  22
HETATM   22  C   UNK N   1      41.536  44.236  49.526  0.00  0.00    -0.052 A 
HETATM   23  C   UNK N   1      40.594  43.548  50.307  0.00  0.00     0.046 A 
HETATM   24  C   UNK N   1      40.460  43.831  51.670  0.00  0.00     0.099 A 
HETATM   25  C   UNK N   1      41.259  44.830  52.259  0.00  0.00     0.098 A 
HETATM   26  C   UNK N   1      42.193  45.525  51.475  0.00  0.00     0.040 A 
HETATM   27  C   UNK N   1      42.337  45.223  50.118  0.00  0.00     0.010 A 
BRANCH  24  28
HETATM   28  O   UNK N   1      39.566  43.131  52.402  0.00  0.00    -0.358 OA
HETATM   29  H   UNK N   1      39.686  42.969  53.348  0.00  0.00     0.218 HD
ENDBRANCH  24  28
BRANCH  25  30
HETATM   30  O   UNK N   1      41.129  45.113  53.572  0.00  0.00    -0.358 OA
HETATM   31  H   UNK N   1      41.495  45.922  53.958  0.00  0.00     0.218 HD
ENDBRANCH  25  30
ENDBRANCH  21  22
ENDBRANCH   1  21
TORSDOF 12
ENDMDL
MODEL 7
REMARK VINA RESULT:      -7.1      2.696      7.628
REMARK  12 active torsions:
REMARK  status: ('A' for Active; 'I' for Inactive)
REMARK    1  A    between atoms: C_2  and  O_3 
REMARK    2  A    between atoms: C_2  and  C_20 
REMARK    3  A    between atoms: O_3  and  C_4 
REMARK    4  A    between atoms: C_4  and  C_5 
REMARK    5  A    between atoms: C_4  and  C_9 
REMARK    6  A    between atoms: C_5  and  O_7 
REMARK    7  A    between atoms: C_9  and  C_10 
REMARK    8  A    between atoms: C_12  and  O_13 
REMARK    9  A    between atoms: C_15  and  O_16 
REMARK   10  A    between atoms: C_21  and  C_22 
REMARK   11  A    between atoms: C_24  and  O_25 
REMARK   12  A    between atoms: C_27  and  O_28 
ROOT
HETATM    1  C   UNK N   1      40.168  45.241  47.950  0.00  0.00     0.233 C 
ENDROOT
BRANCH   1   2
HETATM    2  O   UNK N   1      40.278  46.615  48.112  0.00  0.00    -0.301 OA
BRANCH   2   3
HETATM    3  C   UNK N   1      41.189  47.432  47.525  0.00  0.00     0.283 C 
HETATM    4  O   UNK N   1      42.233  47.721  48.095  0.00  0.00    -0.260 OA
BRANCH   3   5
HETATM    5  C   UNK N   1      40.865  47.982  46.192  0.00  0.00     0.083 C 
HETATM    6  C   UNK N   1      39.905  48.910  45.999  0.00  0.00     0.017 C 
BRANCH   6   7
HETATM    7  C   UNK N   1      39.523  49.446  44.656  0.00  0.00    -0.033 A 
HETATM    8  C   UNK N   1      38.488  48.807  43.953  0.00  0.00     0.050 A 
HETATM    9  C   UNK N   1      38.110  49.233  42.672  0.00  0.00     0.099 A 
HETATM   10  C   UNK N   1      38.772  50.337  42.078  0.00  0.00     0.098 A 
HETATM   11  C   UNK N   1      39.790  50.983  42.785  0.00  0.00     0.040 A 
HETATM   12  C   UNK N   1      40.169  50.548  44.056  0.00  0.00     0.014 A 
BRANCH   9  13
HETATM   13  O   UNK N   1      37.120  48.560  42.042  0.00  0.00    -0.358 OA
HETATM   14  H   UNK N   1      36.820  47.678  42.291  0.00  0.00     0.218 HD
ENDBRANCH   9  13
BRANCH  10  15
HETATM   15  O   UNK N   1      38.460  50.795  40.845  0.00  0.00    -0.358 OA
HETATM   16  H   UNK N   1      38.689  51.672  40.517  0.00  0.00     0.218 HD
ENDBRANCH  10  15
ENDBRANCH   6   7
ENDBRANCH   3   5
ENDBRANCH   2   3
ENDBRANCH   1   2
BRANCH   1  17
HETATM   17  C   UNK N   1      40.031  44.859  46.493  0.00  0.00     0.171 C 
HETATM   18  O   UNK N   1      40.888  44.184  45.942  0.00  0.00    -0.648 OA
BRANCH  17  19
HETATM   19  O   UNK N   1      38.946  45.262  45.798  0.00  0.00    -0.774 OA
HETATM   20  H   UNK N   1      39.014  45.504  44.863  0.00  0.00     0.167 HD
ENDBRANCH  17  19
ENDBRANCH   1  17
BRANCH   1  21
HETATM   21  C   UNK N   1      41.446  44.611  48.531  0.00  0.00     0.082 C 
BRANCH  21  22
HETATM   22  C   UNK N   1      41.279  44.392  50.013  0.00  0.00    -0.052 A 
HETATM   23  C   UNK N   1      42.023  45.156  50.927  0.00  0.00     0.046 A 
HETATM   24  C   UNK N   1      41.834  44.996  52.303  0.00  0.00     0.099 A 
HETATM   25  C   UNK N   1      40.907  44.048  52.777  0.00  0.00     0.098 A 
HETATM   26  C   UNK N   1      40.172  43.277  51.863  0.00  0.00     0.040 A 
HETATM   27  C   UNK N   1      40.349  43.456  50.489  0.00  0.00     0.010 A 
BRANCH  24  28
HETATM   28  O   UNK N   1      42.542  45.767  53.157  0.00  0.00    -0.358 OA
HETATM   29  H   UNK N   1      42.125  46.439  53.715  0.00  0.00     0.218 HD
ENDBRANCH  24  28
BRANCH  25  30
HETATM   30  O   UNK N   1      40.726  43.885  54.104  0.00  0.00    -0.358 OA
HETATM   31  H   UNK N   1      41.081  44.514  54.748  0.00  0.00     0.218 HD
ENDBRANCH  25  30
ENDBRANCH  21  22
ENDBRANCH   1  21
TORSDOF 12
ENDMDL
MODEL 8
REMARK VINA RESULT:      -7.0      1.444      2.034
REMARK  12 active torsions:
REMARK  status: ('A' for Active; 'I' for Inactive)
REMARK    1  A    between atoms: C_2  and  O_3 
REMARK    2  A    between atoms: C_2  and  C_20 
REMARK    3  A    between atoms: O_3  and  C_4 
REMARK    4  A    between atoms: C_4  and  C_5 
REMARK    5  A    between atoms: C_4  and  C_9 
REMARK    6  A    between atoms: C_5  and  O_7 
REMARK    7  A    between atoms: C_9  and  C_10 
REMARK    8  A    between atoms: C_12  and  O_13 
REMARK    9  A    between atoms: C_15  and  O_16 
REMARK   10  A    between atoms: C_21  and  C_22 
REMARK   11  A    between atoms: C_24  and  O_25 
REMARK   12  A    between atoms: C_27  and  O_28 
ROOT
HETATM    1  C   UNK N   1      40.337  44.959  46.368  0.00  0.00     0.233 C 
ENDROOT
BRANCH   1   2
HETATM    2  O   UNK N   1      41.164  46.056  46.165  0.00  0.00    -0.301 OA
BRANCH   2   3
HETATM    3  C   UNK N   1      41.904  46.701  47.102  0.00  0.00     0.283 C 
HETATM    4  O   UNK N   1      42.427  47.780  46.856  0.00  0.00    -0.260 OA
BRANCH   3   5
HETATM    5  C   UNK N   1      42.079  46.045  48.415  0.00  0.00     0.083 C 
HETATM    6  C   UNK N   1      41.095  45.980  49.335  0.00  0.00     0.017 C 
BRANCH   6   7
HETATM    7  C   UNK N   1      41.260  45.368  50.689  0.00  0.00    -0.033 A 
HETATM    8  C   UNK N   1      40.330  44.400  51.102  0.00  0.00     0.050 A 
HETATM    9  C   UNK N   1      40.403  43.818  52.375  0.00  0.00     0.099 A 
HETATM   10  C   UNK N   1      41.443  44.201  53.259  0.00  0.00     0.098 A 
HETATM   11  C   UNK N   1      42.379  45.151  52.842  0.00  0.00     0.040 A 
HETATM   12  C   UNK N   1      42.295  45.734  51.577  0.00  0.00     0.014 A 
BRANCH   9  13
HETATM   13  O   UNK N   1      39.462  42.908  52.716  0.00  0.00    -0.358 OA
HETATM   14  H   UNK N   1      39.578  41.954  52.641  0.00  0.00     0.218 HD
ENDBRANCH   9  13
BRANCH  10  15
HETATM   15  O   UNK N   1      41.568  43.683  54.502  0.00  0.00    -0.358 OA
HETATM   16  H   UNK N   1      41.817  42.769  54.688  0.00  0.00     0.218 HD
ENDBRANCH  10  15
ENDBRANCH   6   7
ENDBRANCH   3   5
ENDBRANCH   2   3
ENDBRANCH   1   2
BRANCH   1  17
HETATM   17  C   UNK N   1      38.893  45.374  46.546  0.00  0.00     0.171 C 
HETATM   18  O   UNK N   1      38.237  44.958  47.490  0.00  0.00    -0.648 OA
BRANCH  17  19
HETATM   19  O   UNK N   1      38.328  46.218  45.657  0.00  0.00    -0.774 OA
HETATM   20  H   UNK N   1      37.432  46.066  45.323  0.00  0.00     0.167 HD
ENDBRANCH  17  19
ENDBRANCH   1  17
BRANCH   1  21
HETATM   21  C   UNK N   1      40.466  44.058  45.129  0.00  0.00     0.082 C 
BRANCH  21  22
HETATM   22  C   UNK N   1      41.773  43.308  45.178  0.00  0.00    -0.052 A 
HETATM   23  C   UNK N   1      41.933  42.226  46.059  0.00  0.00     0.046 A 
HETATM   24  C   UNK N   1      43.123  41.492  46.072  0.00  0.00     0.099 A 
HETATM   25  C   UNK N   1      44.177  41.852  45.210  0.00  0.00     0.098 A 
HETATM   26  C   UNK N   1      44.020  42.940  44.337  0.00  0.00     0.040 A 
HETATM   27  C   UNK N   1      42.821  43.657  44.314  0.00  0.00     0.010 A 
BRANCH  24  28
HETATM   28  O   UNK N   1      43.235  40.438  46.909  0.00  0.00    -0.358 OA
HETATM   29  H   UNK N   1      43.923  40.387  47.588  0.00  0.00     0.218 HD
ENDBRANCH  24  28
BRANCH  25  30
HETATM   30  O   UNK N   1      45.329  41.151  45.222  0.00  0.00    -0.358 OA
HETATM   31  H   UNK N   1      46.106  41.455  45.714  0.00  0.00     0.218 HD
ENDBRANCH  25  30
ENDBRANCH  21  22
ENDBRANCH   1  21
TORSDOF 12
ENDMDL
MODEL 9
REMARK VINA RESULT:      -7.0      1.627      2.529
REMARK  12 active torsions:
REMARK  status: ('A' for Active; 'I' for Inactive)
REMARK    1  A    between atoms: C_2  and  O_3 
REMARK    2  A    between atoms: C_2  and  C_20 
REMARK    3  A    between atoms: O_3  and  C_4 
REMARK    4  A    between atoms: C_4  and  C_5 
REMARK    5  A    between atoms: C_4  and  C_9 
REMARK    6  A    between atoms: C_5  and  O_7 
REMARK    7  A    between atoms: C_9  and  C_10 
REMARK    8  A    between atoms: C_12  and  O_13 
REMARK    9  A    between atoms: C_15  and  O_16 
REMARK   10  A    between atoms: C_21  and  C_22 
REMARK   11  A    between atoms: C_24  and  O_25 
REMARK   12  A    between atoms: C_27  and  O_28 
ROOT
HETATM    1  C   UNK N   1      40.538  45.966  45.490  0.00  0.00     0.233 C 
ENDROOT
BRANCH   1   2
HETATM    2  O   UNK N   1      39.669  45.038  46.049  0.00  0.00    -0.301 OA
BRANCH   2   3
HETATM    3  C   UNK N   1      38.753  45.266  47.023  0.00  0.00     0.283 C 
HETATM    4  O   UNK N   1      37.701  45.841  46.775  0.00  0.00    -0.260 OA
BRANCH   3   5
HETATM    5  C   UNK N   1      39.079  44.822  48.395  0.00  0.00     0.083 C 
HETATM    6  C   UNK N   1      40.139  45.296  49.082  0.00  0.00     0.017 C 
BRANCH   6   7
HETATM    7  C   UNK N   1      40.521  44.828  50.450  0.00  0.00    -0.033 A 
HETATM    8  C   UNK N   1      41.507  45.543  51.149  0.00  0.00     0.050 A 
HETATM    9  C   UNK N   1      41.940  45.133  52.417  0.00  0.00     0.099 A 
HETATM   10  C   UNK N   1      41.365  43.983  53.014  0.00  0.00     0.098 A 
HETATM   11  C   UNK N   1      40.372  43.281  52.326  0.00  0.00     0.040 A 
HETATM   12  C   UNK N   1      39.951  43.689  51.059  0.00  0.00     0.014 A 
BRANCH   9  13
HETATM   13  O   UNK N   1      42.909  45.855  53.026  0.00  0.00    -0.358 OA
HETATM   14  H   UNK N   1      43.834  45.859  52.755  0.00  0.00     0.218 HD
ENDBRANCH   9  13
BRANCH  10  15
HETATM   15  O   UNK N   1      41.741  43.530  54.231  0.00  0.00    -0.358 OA
HETATM   16  H   UNK N   1      41.797  44.079  55.023  0.00  0.00     0.218 HD
ENDBRANCH  10  15
ENDBRANCH   6   7
ENDBRANCH   3   5
ENDBRANCH   2   3
ENDBRANCH   1   2
BRANCH   1  17
HETATM   17  C   UNK N   1      40.092  47.385  45.764  0.00  0.00     0.171 C 
HETATM   18  O   UNK N   1      40.598  48.034  46.668  0.00  0.00    -0.648 OA
BRANCH  17  19
HETATM   19  O   UNK N   1      39.130  47.941  44.997  0.00  0.00    -0.774 OA
HETATM   20  H   UNK N   1      38.206  47.658  45.072  0.00  0.00     0.167 HD
ENDBRANCH  17  19
ENDBRANCH   1  17
BRANCH   1  21
HETATM   21  C   UNK N   1      41.921  45.729  46.119  0.00  0.00     0.082 C 
BRANCH  21  22
HETATM   22  C   UNK N   1      42.199  44.249  46.200  0.00  0.00    -0.052 A 
HETATM   23  C   UNK N   1      42.733  43.571  45.093  0.00  0.00     0.046 A 
HETATM   24  C   UNK N   1      43.043  42.210  45.177  0.00  0.00     0.099 A 
HETATM   25  C   UNK N   1      42.798  41.509  46.374  0.00  0.00     0.098 A 
HETATM   26  C   UNK N   1      42.254  42.186  47.477  0.00  0.00     0.040 A 
HETATM   27  C   UNK N   1      41.966  43.550  47.393  0.00  0.00     0.010 A 
BRANCH  24  28
HETATM   28  O   UNK N   1      43.585  41.592  44.105  0.00  0.00    -0.358 OA
HETATM   29  H   UNK N   1      44.034  40.738  44.172  0.00  0.00     0.218 HD
ENDBRANCH  24  28
BRANCH  25  30
HETATM   30  O   UNK N   1      43.090  40.195  46.459  0.00  0.00    -0.358 OA
HETATM   31  H   UNK N   1      43.932  39.881  46.820  0.00  0.00     0.218 HD
ENDBRANCH  25  30
ENDBRANCH  21  22
ENDBRANCH   1  21
TORSDOF 12
ENDMDL
