MODEL 1
REMARK VINA RESULT:      -7.5      0.000      0.000
REMARK  9 active torsions:
REMARK  status: ('A' for Active; 'I' for Inactive)
REMARK       I    between atoms: C_2  and  N_3 
REMARK    1  A    between atoms: C_2  and  C_17 
REMARK    2  A    between atoms: N_3  and  C_4 
REMARK    3  A    between atoms: C_4  and  C_5 
REMARK    4  A    between atoms: C_5  and  O_6 
REMARK    5  A    between atoms: C_5  and  C_8 
REMARK    6  A    between atoms: C_11  and  O_12 
REMARK    7  A    between atoms: C_18  and  C_19 
REMARK    8  A    between atoms: C_21  and  O_22 
REMARK    9  A    between atoms: C_24  and  O_25 
ROOT
HETATM    1  O   UNK N   1      40.258  49.644  44.110  0.00  0.00    -0.269 OA
HETATM    2  C   UNK N   1      39.494  48.938  44.749  0.00  0.00     0.241 C 
HETATM    3  N   UNK N   1      38.275  48.589  44.241  0.00  0.00    -0.355 N 
HETATM    4  H   UNK N   1      37.629  48.043  44.829  0.00  0.00     0.162 HD
ENDROOT
BRANCH   2   5
HETATM    5  C   UNK N   1      39.876  48.457  46.102  0.00  0.00     0.075 C 
HETATM    6  C   UNK N   1      40.876  47.572  46.306  0.00  0.00     0.017 C 
BRANCH   6   7
HETATM    7  C   UNK N   1      41.262  47.048  47.656  0.00  0.00    -0.033 A 
HETATM    8  C   UNK N   1      40.602  45.963  48.276  0.00  0.00     0.051 A 
HETATM    9  C   UNK N   1      41.012  45.505  49.539  0.00  0.00     0.102 A 
HETATM   10  C   UNK N   1      42.080  46.122  50.193  0.00  0.00     0.099 A 
HETATM   11  C   UNK N   1      42.742  47.195  49.587  0.00  0.00     0.040 A 
HETATM   12  C   UNK N   1      42.336  47.657  48.330  0.00  0.00     0.014 A 
BRANCH   9  13
HETATM   13  O   UNK N   1      40.382  44.468  50.135  0.00  0.00    -0.353 OA
HETATM   14  C   UNK N   1      40.658  43.157  49.811  0.00  0.00     0.210 C 
ENDBRANCH   9  13
BRANCH  10  15
HETATM   15  O   UNK N   1      42.473  45.663  51.401  0.00  0.00    -0.358 OA
HETATM   16  H   UNK N   1      41.888  45.681  52.171  0.00  0.00     0.218 HD
ENDBRANCH  10  15
ENDBRANCH   6   7
ENDBRANCH   2   5
BRANCH   3  17
HETATM   17  C   UNK N   1      37.815  48.983  42.916  0.00  0.00     0.159 C 
BRANCH  17  18
HETATM   18  C   UNK N   1      36.469  48.325  42.541  0.00  0.00     0.169 C 
BRANCH  18  19
HETATM   19  O   UNK N   1      36.374  47.020  43.050  0.00  0.00    -0.389 OA
HETATM   20  H   UNK N   1      37.303  46.679  43.140  0.00  0.00     0.210 HD
ENDBRANCH  18  19
BRANCH  18  21
HETATM   21  C   UNK N   1      35.309  49.175  43.023  0.00  0.00    -0.028 A 
HETATM   22  C   UNK N   1      34.035  48.595  43.175  0.00  0.00     0.012 A 
HETATM   23  C   UNK N   1      32.954  49.365  43.615  0.00  0.00     0.037 A 
HETATM   24  C   UNK N   1      33.125  50.725  43.895  0.00  0.00     0.065 A 
HETATM   25  C   UNK N   1      34.388  51.312  43.738  0.00  0.00     0.037 A 
HETATM   26  C   UNK N   1      35.474  50.544  43.308  0.00  0.00     0.012 A 
BRANCH  24  27
HETATM   27  O   UNK N   1      32.072  51.457  44.313  0.00  0.00    -0.361 OA
HETATM   28  H   UNK N   1      31.828  51.511  45.248  0.00  0.00     0.217 HD
ENDBRANCH  24  27
ENDBRANCH  18  21
ENDBRANCH  17  18
ENDBRANCH   3  17
TORSDOF 9
ENDMDL
MODEL 2
REMARK VINA RESULT:      -7.1      2.754      9.442
REMARK  9 active torsions:
REMARK  status: ('A' for Active; 'I' for Inactive)
REMARK       I    between atoms: C_2  and  N_3 
REMARK    1  A    between atoms: C_2  and  C_17 
REMARK    2  A    between atoms: N_3  and  C_4 
REMARK    3  A    between atoms: C_4  and  C_5 
REMARK    4  A    between atoms: C_5  and  O_6 
REMARK    5  A    between atoms: C_5  and  C_8 
REMARK    6  A    between atoms: C_11  and  O_12 
REMARK    7  A    between atoms: C_18  and  C_19 
REMARK    8  A    between atoms: C_21  and  O_22 
REMARK    9  A    between atoms: C_24  and  O_25 
ROOT
HETATM    1  O   UNK N   1      42.335  47.284  48.284  0.00  0.00    -0.269 OA
HETATM    2  C   UNK N   1      41.577  46.889  47.411  0.00  0.00     0.241 C 
HETATM    3  N   UNK N   1      40.991  45.658  47.499  0.00  0.00    -0.355 N 
HETATM    4  H   UNK N   1      40.405  45.328  46.719  0.00  0.00     0.162 HD
ENDROOT
BRANCH   2   5
HETATM    5  C   UNK N   1      41.292  47.739  46.227  0.00  0.00     0.075 C 
HETATM    6  C   UNK N   1      40.100  48.344  46.033  0.00  0.00     0.017 C 
BRANCH   6   7
HETATM    7  C   UNK N   1      39.776  49.182  44.834  0.00  0.00    -0.033 A 
HETATM    8  C   UNK N   1      38.714  48.881  43.950  0.00  0.00     0.051 A 
HETATM    9  C   UNK N   1      38.448  49.707  42.846  0.00  0.00     0.102 A 
HETATM   10  C   UNK N   1      39.234  50.837  42.613  0.00  0.00     0.099 A 
HETATM   11  C   UNK N   1      40.285  51.146  43.483  0.00  0.00     0.040 A 
HETATM   12  C   UNK N   1      40.557  50.325  44.583  0.00  0.00     0.014 A 
BRANCH   9  13
HETATM   13  O   UNK N   1      37.433  49.421  41.999  0.00  0.00    -0.353 OA
HETATM   14  C   UNK N   1      36.451  48.507  42.312  0.00  0.00     0.210 C 
ENDBRANCH   9  13
BRANCH  10  15
HETATM   15  O   UNK N   1      38.959  51.631  41.556  0.00  0.00    -0.358 OA
HETATM   16  H   UNK N   1      38.113  51.586  41.089  0.00  0.00     0.218 HD
ENDBRANCH  10  15
ENDBRANCH   6   7
ENDBRANCH   2   5
BRANCH   3  17
HETATM   17  C   UNK N   1      41.180  44.758  48.630  0.00  0.00     0.159 C 
BRANCH  17  18
HETATM   18  C   UNK N   1      40.067  44.905  49.691  0.00  0.00     0.169 C 
BRANCH  18  19
HETATM   19  O   UNK N   1      38.937  44.140  49.360  0.00  0.00    -0.389 OA
HETATM   20  H   UNK N   1      39.070  43.242  49.762  0.00  0.00     0.210 HD
ENDBRANCH  18  19
BRANCH  18  21
HETATM   21  C   UNK N   1      40.588  44.527  51.065  0.00  0.00    -0.028 A 
HETATM   22  C   UNK N   1      40.017  43.438  51.751  0.00  0.00     0.012 A 
HETATM   23  C   UNK N   1      40.483  43.079  53.021  0.00  0.00     0.037 A 
HETATM   24  C   UNK N   1      41.513  43.806  53.625  0.00  0.00     0.065 A 
HETATM   25  C   UNK N   1      42.080  44.897  52.952  0.00  0.00     0.037 A 
HETATM   26  C   UNK N   1      41.625  45.255  51.679  0.00  0.00     0.012 A 
BRANCH  24  27
HETATM   27  O   UNK N   1      41.949  43.452  54.852  0.00  0.00    -0.361 OA
HETATM   28  H   UNK N   1      41.383  42.974  55.475  0.00  0.00     0.217 HD
ENDBRANCH  24  27
ENDBRANCH  18  21
ENDBRANCH  17  18
ENDBRANCH   3  17
TORSDOF 9
ENDMDL
MODEL 3
REMARK VINA RESULT:      -7.1      1.498      1.921
REMARK  9 active torsions:
REMARK  status: ('A' for Active; 'I' for Inactive)
REMARK       I    between atoms: C_2  and  N_3 
REMARK    1  A    between atoms: C_2  and  C_17 
REMARK    2  A    between atoms: N_3  and  C_4 
REMARK    3  A    between atoms: C_4  and  C_5 
REMARK    4  A    between atoms: C_5  and  O_6 
REMARK    5  A    between atoms: C_5  and  C_8 
REMARK    6  A    between atoms: C_11  and  O_12 
REMARK    7  A    between atoms: C_18  and  C_19 
REMARK    8  A    between atoms: C_21  and  O_22 
REMARK    9  A    between atoms: C_24  and  O_25 
ROOT
HETATM    1  O   UNK N   1      39.798  49.764  44.921  0.00  0.00    -0.269 OA
HETATM    2  C   UNK N   1      39.412  48.606  44.934  0.00  0.00     0.241 C 
HETATM    3  N   UNK N   1      38.411  48.193  44.102  0.00  0.00    -0.355 N 
HETATM    4  H   UNK N   1      38.066  47.225  44.179  0.00  0.00     0.162 HD
ENDROOT
BRANCH   2   5
HETATM    5  C   UNK N   1      40.020  47.626  45.872  0.00  0.00     0.075 C 
HETATM    6  C   UNK N   1      39.311  46.631  46.447  0.00  0.00     0.017 C 
BRANCH   6   7
HETATM    7  C   UNK N   1      39.891  45.649  47.419  0.00  0.00    -0.033 A 
HETATM    8  C   UNK N   1      40.849  44.677  47.049  0.00  0.00     0.051 A 
HETATM    9  C   UNK N   1      41.367  43.786  48.003  0.00  0.00     0.102 A 
HETATM   10  C   UNK N   1      40.938  43.855  49.330  0.00  0.00     0.099 A 
HETATM   11  C   UNK N   1      39.993  44.815  49.707  0.00  0.00     0.040 A 
HETATM   12  C   UNK N   1      39.471  45.703  48.760  0.00  0.00     0.014 A 
BRANCH   9  13
HETATM   13  O   UNK N   1      42.283  42.855  47.653  0.00  0.00    -0.353 OA
HETATM   14  C   UNK N   1      42.521  42.517  46.338  0.00  0.00     0.210 C 
ENDBRANCH   9  13
BRANCH  10  15
HETATM   15  O   UNK N   1      41.455  43.002  50.240  0.00  0.00    -0.358 OA
HETATM   16  H   UNK N   1      41.284  43.100  51.187  0.00  0.00     0.218 HD
ENDBRANCH  10  15
ENDBRANCH   6   7
ENDBRANCH   2   5
BRANCH   3  17
HETATM   17  C   UNK N   1      37.768  49.065  43.126  0.00  0.00     0.159 C 
BRANCH  17  18
HETATM   18  C   UNK N   1      36.454  48.466  42.579  0.00  0.00     0.169 C 
BRANCH  18  19
HETATM   19  O   UNK N   1      36.321  47.112  42.926  0.00  0.00    -0.389 OA
HETATM   20  H   UNK N   1      37.029  46.619  42.436  0.00  0.00     0.210 HD
ENDBRANCH  18  19
BRANCH  18  21
HETATM   21  C   UNK N   1      35.261  49.266  43.068  0.00  0.00    -0.028 A 
HETATM   22  C   UNK N   1      34.013  48.634  43.220  0.00  0.00     0.012 A 
HETATM   23  C   UNK N   1      32.902  49.357  43.665  0.00  0.00     0.037 A 
HETATM   24  C   UNK N   1      33.018  50.721  43.953  0.00  0.00     0.065 A 
HETATM   25  C   UNK N   1      34.256  51.360  43.795  0.00  0.00     0.037 A 
HETATM   26  C   UNK N   1      35.372  50.639  43.360  0.00  0.00     0.012 A 
BRANCH  24  27
HETATM   27  O   UNK N   1      31.937  51.408  44.377  0.00  0.00    -0.361 OA
HETATM   28  H   UNK N   1      31.843  51.691  45.297  0.00  0.00     0.217 HD
ENDBRANCH  24  27
ENDBRANCH  18  21
ENDBRANCH  17  18
ENDBRANCH   3  17
TORSDOF 9
ENDMDL
MODEL 4
REMARK VINA RESULT:      -6.6      3.059      9.760
REMARK  9 active torsions:
REMARK  status: ('A' for Active; 'I' for Inactive)
REMARK       I    between atoms: C_2  and  N_3 
REMARK    1  A    between atoms: C_2  and  C_17 
REMARK    2  A    between atoms: N_3  and  C_4 
REMARK    3  A    between atoms: C_4  and  C_5 
REMARK    4  A    between atoms: C_5  and  O_6 
REMARK    5  A    between atoms: C_5  and  C_8 
REMARK    6  A    between atoms: C_11  and  O_12 
REMARK    7  A    between atoms: C_18  and  C_19 
REMARK    8  A    between atoms: C_21  and  O_22 
REMARK    9  A    between atoms: C_24  and  O_25 
ROOT
HETATM    1  O   UNK N   1      42.328  48.234  47.946  0.00  0.00    -0.269 OA
HETATM    2  C   UNK N   1      41.541  47.585  47.274  0.00  0.00     0.241 C 
HETATM    3  N   UNK N   1      41.113  46.357  47.693  0.00  0.00    -0.355 N 
HETATM    4  H   UNK N   1      40.497  45.808  47.075  0.00  0.00     0.162 HD
ENDROOT
BRANCH   2   5
HETATM    5  C   UNK N   1      41.048  48.118  45.979  0.00  0.00     0.075 C 
HETATM    6  C   UNK N   1      39.808  48.632  45.826  0.00  0.00     0.017 C 
BRANCH   6   7
HETATM    7  C   UNK N   1      39.275  49.148  44.524  0.00  0.00    -0.033 A 
HETATM    8  C   UNK N   1      39.816  50.276  43.866  0.00  0.00     0.051 A 
HETATM    9  C   UNK N   1      39.283  50.712  42.641  0.00  0.00     0.102 A 
HETATM   10  C   UNK N   1      38.210  50.030  42.064  0.00  0.00     0.099 A 
HETATM   11  C   UNK N   1      37.670  48.910  42.705  0.00  0.00     0.040 A 
HETATM   12  C   UNK N   1      38.195  48.474  43.927  0.00  0.00     0.014 A 
BRANCH   9  13
HETATM   13  O   UNK N   1      39.798  51.790  42.009  0.00  0.00    -0.353 OA
HETATM   14  C   UNK N   1      40.020  52.986  42.658  0.00  0.00     0.210 C 
ENDBRANCH   9  13
BRANCH  10  15
HETATM   15  O   UNK N   1      37.717  50.450  40.879  0.00  0.00    -0.358 OA
HETATM   16  H   UNK N   1      37.529  51.383  40.705  0.00  0.00     0.218 HD
ENDBRANCH  10  15
ENDBRANCH   6   7
ENDBRANCH   2   5
BRANCH   3  17
HETATM   17  C   UNK N   1      41.512  45.756  48.959  0.00  0.00     0.159 C 
BRANCH  17  18
HETATM   18  C   UNK N   1      40.382  44.916  49.594  0.00  0.00     0.169 C 
BRANCH  18  19
HETATM   19  O   UNK N   1      40.106  43.768  48.835  0.00  0.00    -0.389 OA
HETATM   20  H   UNK N   1      39.756  44.079  47.959  0.00  0.00     0.210 HD
ENDBRANCH  18  19
BRANCH  18  21
HETATM   21  C   UNK N   1      40.733  44.545  51.022  0.00  0.00    -0.028 A 
HETATM   22  C   UNK N   1      41.801  45.195  51.669  0.00  0.00     0.012 A 
HETATM   23  C   UNK N   1      42.140  44.862  52.985  0.00  0.00     0.037 A 
HETATM   24  C   UNK N   1      41.429  43.869  53.666  0.00  0.00     0.065 A 
HETATM   25  C   UNK N   1      40.370  43.210  53.025  0.00  0.00     0.037 A 
HETATM   26  C   UNK N   1      40.021  43.546  51.714  0.00  0.00     0.012 A 
BRANCH  24  27
HETATM   27  O   UNK N   1      41.771  43.554  54.932  0.00  0.00    -0.361 OA
HETATM   28  H   UNK N   1      41.629  42.667  55.292  0.00  0.00     0.217 HD
ENDBRANCH  24  27
ENDBRANCH  18  21
ENDBRANCH  17  18
ENDBRANCH   3  17
TORSDOF 9
ENDMDL
MODEL 5
REMARK VINA RESULT:      -6.6      2.195      9.929
REMARK  9 active torsions:
REMARK  status: ('A' for Active; 'I' for Inactive)
REMARK       I    between atoms: C_2  and  N_3 
REMARK    1  A    between atoms: C_2  and  C_17 
REMARK    2  A    between atoms: N_3  and  C_4 
REMARK    3  A    between atoms: C_4  and  C_5 
REMARK    4  A    between atoms: C_5  and  O_6 
REMARK    5  A    between atoms: C_5  and  C_8 
REMARK    6  A    between atoms: C_11  and  O_12 
REMARK    7  A    between atoms: C_18  and  C_19 
REMARK    8  A    between atoms: C_21  and  O_22 
REMARK    9  A    between atoms: C_24  and  O_25 
ROOT
HETATM    1  O   UNK N   1      36.572  48.292  42.719  0.00  0.00    -0.269 OA
HETATM    2  C   UNK N   1      36.681  49.419  43.176  0.00  0.00     0.241 C 
HETATM    3  N   UNK N   1      37.807  49.791  43.855  0.00  0.00    -0.355 N 
HETATM    4  H   UNK N   1      37.844  50.728  44.281  0.00  0.00     0.162 HD
ENDROOT
BRANCH   2   5
HETATM    5  C   UNK N   1      35.579  50.402  43.014  0.00  0.00     0.075 C 
HETATM    6  C   UNK N   1      34.832  50.838  44.052  0.00  0.00     0.017 C 
BRANCH   6   7
HETATM    7  C   UNK N   1      33.696  51.805  43.913  0.00  0.00    -0.033 A 
HETATM    8  C   UNK N   1      33.675  53.063  44.557  0.00  0.00     0.051 A 
HETATM    9  C   UNK N   1      32.588  53.936  44.384  0.00  0.00     0.102 A 
HETATM   10  C   UNK N   1      31.517  53.565  43.569  0.00  0.00     0.099 A 
HETATM   11  C   UNK N   1      31.529  52.324  42.925  0.00  0.00     0.040 A 
HETATM   12  C   UNK N   1      32.607  51.449  43.096  0.00  0.00     0.014 A 
BRANCH   9  13
HETATM   13  O   UNK N   1      32.565  55.140  44.999  0.00  0.00    -0.353 OA
HETATM   14  C   UNK N   1      33.715  55.853  45.261  0.00  0.00     0.210 C 
ENDBRANCH   9  13
BRANCH  10  15
HETATM   15  O   UNK N   1      30.485  54.419  43.400  0.00  0.00    -0.358 OA
HETATM   16  H   UNK N   1      30.242  54.761  42.528  0.00  0.00     0.218 HD
ENDBRANCH  10  15
ENDBRANCH   6   7
ENDBRANCH   2   5
BRANCH   3  17
HETATM   17  C   UNK N   1      38.956  48.915  44.045  0.00  0.00     0.159 C 
BRANCH  17  18
HETATM   18  C   UNK N   1      39.712  49.213  45.358  0.00  0.00     0.169 C 
BRANCH  18  19
HETATM   19  O   UNK N   1      38.902  49.903  46.274  0.00  0.00    -0.389 OA
HETATM   20  H   UNK N   1      38.007  49.994  45.853  0.00  0.00     0.210 HD
ENDBRANCH  18  19
BRANCH  18  21
HETATM   21  C   UNK N   1      40.242  47.930  45.970  0.00  0.00    -0.028 A 
HETATM   22  C   UNK N   1      41.611  47.816  46.274  0.00  0.00     0.012 A 
HETATM   23  C   UNK N   1      42.117  46.638  46.835  0.00  0.00     0.037 A 
HETATM   24  C   UNK N   1      41.266  45.557  47.088  0.00  0.00     0.065 A 
HETATM   25  C   UNK N   1      39.903  45.659  46.779  0.00  0.00     0.037 A 
HETATM   26  C   UNK N   1      39.391  46.837  46.228  0.00  0.00     0.012 A 
BRANCH  24  27
HETATM   27  O   UNK N   1      41.768  44.425  47.624  0.00  0.00    -0.361 OA
HETATM   28  H   UNK N   1      42.606  44.418  48.107  0.00  0.00     0.217 HD
ENDBRANCH  24  27
ENDBRANCH  18  21
ENDBRANCH  17  18
ENDBRANCH   3  17
TORSDOF 9
ENDMDL
MODEL 6
REMARK VINA RESULT:      -6.2      8.263     10.813
REMARK  9 active torsions:
REMARK  status: ('A' for Active; 'I' for Inactive)
REMARK       I    between atoms: C_2  and  N_3 
REMARK    1  A    between atoms: C_2  and  C_17 
REMARK    2  A    between atoms: N_3  and  C_4 
REMARK    3  A    between atoms: C_4  and  C_5 
REMARK    4  A    between atoms: C_5  and  O_6 
REMARK    5  A    between atoms: C_5  and  C_8 
REMARK    6  A    between atoms: C_11  and  O_12 
REMARK    7  A    between atoms: C_18  and  C_19 
REMARK    8  A    between atoms: C_21  and  O_22 
REMARK    9  A    between atoms: C_24  and  O_25 
ROOT
HETATM    1  O   UNK N   1      29.543  49.284  40.929  0.00  0.00    -0.269 OA
HETATM    2  C   UNK N   1      30.747  49.087  40.874  0.00  0.00     0.241 C 
HETATM    3  N   UNK N   1      31.622  49.929  41.500  0.00  0.00    -0.355 N 
HETATM    4  H   UNK N   1      32.633  49.770  41.386  0.00  0.00     0.162 HD
ENDROOT
BRANCH   2   5
HETATM    5  C   UNK N   1      31.281  47.930  40.110  0.00  0.00     0.075 C 
HETATM    6  C   UNK N   1      30.502  46.908  39.695  0.00  0.00     0.017 C 
BRANCH   6   7
HETATM    7  C   UNK N   1      31.019  45.715  38.950  0.00  0.00    -0.033 A 
HETATM    8  C   UNK N   1      31.429  44.525  39.594  0.00  0.00     0.051 A 
HETATM    9  C   UNK N   1      31.898  43.433  38.845  0.00  0.00     0.102 A 
HETATM   10  C   UNK N   1      31.960  43.516  37.452  0.00  0.00     0.099 A 
HETATM   11  C   UNK N   1      31.553  44.688  36.805  0.00  0.00     0.040 A 
HETATM   12  C   UNK N   1      31.089  45.780  37.546  0.00  0.00     0.014 A 
BRANCH   9  13
HETATM   13  O   UNK N   1      32.291  42.294  39.458  0.00  0.00    -0.353 OA
HETATM   14  C   UNK N   1      32.936  42.301  40.675  0.00  0.00     0.210 C 
ENDBRANCH   9  13
BRANCH  10  15
HETATM   15  O   UNK N   1      32.399  42.454  36.743  0.00  0.00    -0.358 OA
HETATM   16  H   UNK N   1      32.688  41.636  37.172  0.00  0.00     0.218 HD
ENDBRANCH  10  15
ENDBRANCH   6   7
ENDBRANCH   2   5
BRANCH   3  17
HETATM   17  C   UNK N   1      31.202  51.074  42.298  0.00  0.00     0.159 C 
BRANCH  17  18
HETATM   18  C   UNK N   1      31.935  51.145  43.655  0.00  0.00     0.169 C 
BRANCH  18  19
HETATM   19  O   UNK N   1      33.060  50.304  43.678  0.00  0.00    -0.389 OA
HETATM   20  H   UNK N   1      32.738  49.389  43.464  0.00  0.00     0.210 HD
ENDBRANCH  18  19
BRANCH  18  21
HETATM   21  C   UNK N   1      32.329  52.576  43.973  0.00  0.00    -0.028 A 
HETATM   22  C   UNK N   1      33.507  52.830  44.700  0.00  0.00     0.012 A 
HETATM   23  C   UNK N   1      33.881  54.143  45.005  0.00  0.00     0.037 A 
HETATM   24  C   UNK N   1      33.081  55.216  44.601  0.00  0.00     0.065 A 
HETATM   25  C   UNK N   1      31.902  54.970  43.884  0.00  0.00     0.037 A 
HETATM   26  C   UNK N   1      31.528  53.661  43.568  0.00  0.00     0.012 A 
BRANCH  24  27
HETATM   27  O   UNK N   1      33.452  56.476  44.907  0.00  0.00    -0.361 OA
HETATM   28  H   UNK N   1      33.069  56.952  45.657  0.00  0.00     0.217 HD
ENDBRANCH  24  27
ENDBRANCH  18  21
ENDBRANCH  17  18
ENDBRANCH   3  17
TORSDOF 9
ENDMDL
MODEL 7
REMARK VINA RESULT:      -6.0      1.463      9.430
REMARK  9 active torsions:
REMARK  status: ('A' for Active; 'I' for Inactive)
REMARK       I    between atoms: C_2  and  N_3 
REMARK    1  A    between atoms: C_2  and  C_17 
REMARK    2  A    between atoms: N_3  and  C_4 
REMARK    3  A    between atoms: C_4  and  C_5 
REMARK    4  A    between atoms: C_5  and  O_6 
REMARK    5  A    between atoms: C_5  and  C_8 
REMARK    6  A    between atoms: C_11  and  O_12 
REMARK    7  A    between atoms: C_18  and  C_19 
REMARK    8  A    between atoms: C_21  and  O_22 
REMARK    9  A    between atoms: C_24  and  O_25 
ROOT
HETATM    1  O   UNK N   1      39.370  49.243  43.261  0.00  0.00    -0.269 OA
HETATM    2  C   UNK N   1      38.819  49.442  44.332  0.00  0.00     0.241 C 
HETATM    3  N   UNK N   1      39.394  49.028  45.500  0.00  0.00    -0.355 N 
HETATM    4  H   UNK N   1      38.877  49.156  46.382  0.00  0.00     0.162 HD
ENDROOT
BRANCH   2   5
HETATM    5  C   UNK N   1      37.502  50.128  44.380  0.00  0.00     0.075 C 
HETATM    6  C   UNK N   1      36.469  49.780  43.582  0.00  0.00     0.017 C 
BRANCH   6   7
HETATM    7  C   UNK N   1      35.141  50.474  43.589  0.00  0.00    -0.033 A 
HETATM    8  C   UNK N   1      34.063  50.077  42.764  0.00  0.00     0.051 A 
HETATM    9  C   UNK N   1      32.835  50.757  42.817  0.00  0.00     0.102 A 
HETATM   10  C   UNK N   1      32.670  51.834  43.690  0.00  0.00     0.099 A 
HETATM   11  C   UNK N   1      33.729  52.232  44.514  0.00  0.00     0.040 A 
HETATM   12  C   UNK N   1      34.955  51.561  44.462  0.00  0.00     0.014 A 
BRANCH   9  13
HETATM   13  O   UNK N   1      31.803  50.381  42.030  0.00  0.00    -0.353 OA
HETATM   14  C   UNK N   1      31.351  49.080  41.984  0.00  0.00     0.210 C 
ENDBRANCH   9  13
BRANCH  10  15
HETATM   15  O   UNK N   1      31.480  52.470  43.743  0.00  0.00    -0.358 OA
HETATM   16  H   UNK N   1      30.861  52.337  44.473  0.00  0.00     0.218 HD
ENDBRANCH  10  15
ENDBRANCH   6   7
ENDBRANCH   2   5
BRANCH   3  17
HETATM   17  C   UNK N   1      40.694  48.373  45.567  0.00  0.00     0.159 C 
BRANCH  17  18
HETATM   18  C   UNK N   1      40.579  46.871  45.908  0.00  0.00     0.169 C 
BRANCH  18  19
HETATM   19  O   UNK N   1      41.289  46.080  44.991  0.00  0.00    -0.389 OA
HETATM   20  H   UNK N   1      41.802  46.702  44.411  0.00  0.00     0.210 HD
ENDBRANCH  18  19
BRANCH  18  21
HETATM   21  C   UNK N   1      41.056  46.609  47.324  0.00  0.00    -0.028 A 
HETATM   22  C   UNK N   1      40.436  45.607  48.094  0.00  0.00     0.012 A 
HETATM   23  C   UNK N   1      40.860  45.356  49.403  0.00  0.00     0.037 A 
HETATM   24  C   UNK N   1      41.897  46.107  49.964  0.00  0.00     0.065 A 
HETATM   25  C   UNK N   1      42.514  47.113  49.207  0.00  0.00     0.037 A 
HETATM   26  C   UNK N   1      42.100  47.362  47.895  0.00  0.00     0.012 A 
BRANCH  24  27
HETATM   27  O   UNK N   1      42.292  45.858  51.230  0.00  0.00    -0.361 OA
HETATM   28  H   UNK N   1      41.782  45.284  51.819  0.00  0.00     0.217 HD
ENDBRANCH  24  27
ENDBRANCH  18  21
ENDBRANCH  17  18
ENDBRANCH   3  17
TORSDOF 9
ENDMDL
MODEL 8
REMARK VINA RESULT:      -5.9     13.336     15.418
REMARK  9 active torsions:
REMARK  status: ('A' for Active; 'I' for Inactive)
REMARK       I    between atoms: C_2  and  N_3 
REMARK    1  A    between atoms: C_2  and  C_17 
REMARK    2  A    between atoms: N_3  and  C_4 
REMARK    3  A    between atoms: C_4  and  C_5 
REMARK    4  A    between atoms: C_5  and  O_6 
REMARK    5  A    between atoms: C_5  and  C_8 
REMARK    6  A    between atoms: C_11  and  O_12 
REMARK    7  A    between atoms: C_18  and  C_19 
REMARK    8  A    between atoms: C_21  and  O_22 
REMARK    9  A    between atoms: C_24  and  O_25 
ROOT
HETATM    1  O   UNK N   1      32.379  43.686  57.163  0.00  0.00    -0.269 OA
HETATM    2  C   UNK N   1      31.321  44.187  57.511  0.00  0.00     0.241 C 
HETATM    3  N   UNK N   1      30.249  43.403  57.835  0.00  0.00    -0.355 N 
HETATM    4  H   UNK N   1      29.353  43.856  58.066  0.00  0.00     0.162 HD
ENDROOT
BRANCH   2   5
HETATM    5  C   UNK N   1      31.178  45.664  57.572  0.00  0.00     0.075 C 
HETATM    6  C   UNK N   1      30.089  46.271  58.093  0.00  0.00     0.017 C 
BRANCH   6   7
HETATM    7  C   UNK N   1      29.906  47.757  58.140  0.00  0.00    -0.033 A 
HETATM    8  C   UNK N   1      30.261  48.609  57.069  0.00  0.00     0.051 A 
HETATM    9  C   UNK N   1      30.058  49.996  57.162  0.00  0.00     0.102 A 
HETATM   10  C   UNK N   1      29.502  50.545  58.319  0.00  0.00     0.099 A 
HETATM   11  C   UNK N   1      29.144  49.710  59.384  0.00  0.00     0.040 A 
HETATM   12  C   UNK N   1      29.347  48.329  59.297  0.00  0.00     0.014 A 
BRANCH   9  13
HETATM   13  O   UNK N   1      30.397  50.813  56.140  0.00  0.00    -0.353 OA
HETATM   14  C   UNK N   1      29.756  50.768  54.921  0.00  0.00     0.210 C 
ENDBRANCH   9  13
BRANCH  10  15
HETATM   15  O   UNK N   1      29.299  51.878  58.391  0.00  0.00    -0.358 OA
HETATM   16  H   UNK N   1      29.290  52.437  57.601  0.00  0.00     0.218 HD
ENDBRANCH  10  15
ENDBRANCH   6   7
ENDBRANCH   2   5
BRANCH   3  17
HETATM   17  C   UNK N   1      30.292  41.947  57.836  0.00  0.00     0.159 C 
BRANCH  17  18
HETATM   18  C   UNK N   1      29.104  41.323  57.071  0.00  0.00     0.169 C 
BRANCH  18  19
HETATM   19  O   UNK N   1      27.873  41.750  57.596  0.00  0.00    -0.389 OA
HETATM   20  H   UNK N   1      27.796  42.719  57.395  0.00  0.00     0.210 HD
ENDBRANCH  18  19
BRANCH  18  21
HETATM   21  C   UNK N   1      29.197  41.644  55.591  0.00  0.00    -0.028 A 
HETATM   22  C   UNK N   1      30.437  41.548  54.934  0.00  0.00     0.012 A 
HETATM   23  C   UNK N   1      30.541  41.844  53.570  0.00  0.00     0.037 A 
HETATM   24  C   UNK N   1      29.414  42.251  52.850  0.00  0.00     0.065 A 
HETATM   25  C   UNK N   1      28.176  42.357  53.500  0.00  0.00     0.037 A 
HETATM   26  C   UNK N   1      28.065  42.053  54.860  0.00  0.00     0.012 A 
BRANCH  24  27
HETATM   27  O   UNK N   1      29.529  42.538  51.537  0.00  0.00    -0.361 OA
HETATM   28  H   UNK N   1      30.324  42.956  51.175  0.00  0.00     0.217 HD
ENDBRANCH  24  27
ENDBRANCH  18  21
ENDBRANCH  17  18
ENDBRANCH   3  17
TORSDOF 9
ENDMDL
MODEL 9
REMARK VINA RESULT:      -5.9      8.045     13.261
REMARK  9 active torsions:
REMARK  status: ('A' for Active; 'I' for Inactive)
REMARK       I    between atoms: C_2  and  N_3 
REMARK    1  A    between atoms: C_2  and  C_17 
REMARK    2  A    between atoms: N_3  and  C_4 
REMARK    3  A    between atoms: C_4  and  C_5 
REMARK    4  A    between atoms: C_5  and  O_6 
REMARK    5  A    between atoms: C_5  and  C_8 
REMARK    6  A    between atoms: C_11  and  O_12 
REMARK    7  A    between atoms: C_18  and  C_19 
REMARK    8  A    between atoms: C_21  and  O_22 
REMARK    9  A    between atoms: C_24  and  O_25 
ROOT
HETATM    1  O   UNK N   1      30.321  50.149  40.734  0.00  0.00    -0.269 OA
HETATM    2  C   UNK N   1      30.872  51.226  40.898  0.00  0.00     0.241 C 
HETATM    3  N   UNK N   1      31.828  51.382  41.861  0.00  0.00    -0.355 N 
HETATM    4  H   UNK N   1      32.231  52.318  42.015  0.00  0.00     0.162 HD
ENDROOT
BRANCH   2   5
HETATM    5  C   UNK N   1      30.498  52.393  40.058  0.00  0.00     0.075 C 
HETATM    6  C   UNK N   1      30.734  53.668  40.434  0.00  0.00     0.017 C 
BRANCH   6   7
HETATM    7  C   UNK N   1      30.341  54.863  39.620  0.00  0.00    -0.033 A 
HETATM    8  C   UNK N   1      30.056  56.124  40.195  0.00  0.00     0.051 A 
HETATM    9  C   UNK N   1      29.700  57.214  39.383  0.00  0.00     0.102 A 
HETATM   10  C   UNK N   1      29.626  57.060  37.998  0.00  0.00     0.099 A 
HETATM   11  C   UNK N   1      29.910  55.818  37.419  0.00  0.00     0.040 A 
HETATM   12  C   UNK N   1      30.261  54.728  38.222  0.00  0.00     0.014 A 
BRANCH   9  13
HETATM   13  O   UNK N   1      29.427  58.420  39.930  0.00  0.00    -0.353 OA
HETATM   14  C   UNK N   1      28.375  58.611  40.800  0.00  0.00     0.210 C 
ENDBRANCH   9  13
BRANCH  10  15
HETATM   15  O   UNK N   1      29.298  58.120  37.228  0.00  0.00    -0.358 OA
HETATM   16  H   UNK N   1      29.277  59.020  37.580  0.00  0.00     0.218 HD
ENDBRANCH  10  15
ENDBRANCH   6   7
ENDBRANCH   2   5
BRANCH   3  17
HETATM   17  C   UNK N   1      32.289  50.297  42.718  0.00  0.00     0.159 C 
BRANCH  17  18
HETATM   18  C   UNK N   1      32.252  50.675  44.215  0.00  0.00     0.169 C 
BRANCH  18  19
HETATM   19  O   UNK N   1      33.166  49.912  44.960  0.00  0.00    -0.389 OA
HETATM   20  H   UNK N   1      34.034  50.395  44.931  0.00  0.00     0.210 HD
ENDBRANCH  18  19
BRANCH  18  21
HETATM   21  C   UNK N   1      32.517  52.158  44.397  0.00  0.00    -0.028 A 
HETATM   22  C   UNK N   1      33.811  52.667  44.179  0.00  0.00     0.012 A 
HETATM   23  C   UNK N   1      34.072  54.031  44.346  0.00  0.00     0.037 A 
HETATM   24  C   UNK N   1      33.051  54.900  44.744  0.00  0.00     0.065 A 
HETATM   25  C   UNK N   1      31.762  54.399  44.971  0.00  0.00     0.037 A 
HETATM   26  C   UNK N   1      31.493  53.039  44.796  0.00  0.00     0.012 A 
BRANCH  24  27
HETATM   27  O   UNK N   1      33.319  56.213  44.907  0.00  0.00    -0.361 OA
HETATM   28  H   UNK N   1      33.331  56.625  45.782  0.00  0.00     0.217 HD
ENDBRANCH  24  27
ENDBRANCH  18  21
ENDBRANCH  17  18
ENDBRANCH   3  17
TORSDOF 9
ENDMDL
