MODEL 1
REMARK VINA RESULT:      -7.2      0.000      0.000
REMARK  5 active torsions:
REMARK  status: ('A' for Active; 'I' for Inactive)
REMARK    1  A    between atoms: C_8  and  O_10 
REMARK    2  A    between atoms: O_10  and  C_11 
REMARK    3  A    between atoms: C_11  and  C_12 
REMARK    4  A    between atoms: C_13  and  O_14 
REMARK    5  A    between atoms: C_20  and  O_21 
ROOT
HETATM    1  C   UNK N   1      29.321  55.134  40.810  0.00  0.00     0.052 C 
HETATM    2  C   UNK N   1      30.120  56.175  39.928  0.00  0.00     0.060 C 
HETATM    3  C   UNK N   1      30.287  55.582  38.506  0.00  0.00     0.038 C 
HETATM    4  C   UNK N   1      28.985  55.072  37.868  0.00  0.00     0.009 C 
HETATM    5  C   UNK N   1      28.345  53.975  38.767  0.00  0.00     0.004 C 
HETATM    6  C   UNK N   1      27.251  53.073  38.054  0.00  0.00    -0.017 C 
HETATM    7  C   UNK N   1      26.750  51.979  39.064  0.00  0.00     0.126 C 
HETATM    8  C   UNK N   1      26.300  52.578  40.412  0.00  0.00     0.033 C 
HETATM    9  C   UNK N   1      27.424  53.403  41.079  0.00  0.00     0.012 C 
HETATM   10  C   UNK N   1      27.958  54.574  40.185  0.00  0.00    -0.031 C 
HETATM   11  C   UNK N   1      26.841  55.664  40.135  0.00  0.00     0.016 C 
HETATM   12  C   UNK N   1      27.875  52.342  36.832  0.00  0.00     0.018 C 
HETATM   13  C   UNK N   1      26.049  53.876  37.490  0.00  0.00     0.018 C 
HETATM   14  C   UNK N   1      29.522  57.606  39.859  0.00  0.00     0.046 C 
ENDROOT
BRANCH   1  15
HETATM   15  C   UNK N   1      29.265  55.541  42.305  0.00  0.00     0.184 C 
BRANCH  15  16
HETATM   16  O   UNK N   1      30.513  55.782  42.838  0.00  0.00    -0.351 OA
BRANCH  16  17
HETATM   17  C   UNK N   1      31.335  54.825  43.338  0.00  0.00     0.071 A 
HETATM   18  C   UNK N   1      32.266  55.185  44.320  0.00  0.00     0.038 A 
HETATM   19  C   UNK N   1      33.129  54.229  44.865  0.00  0.00     0.017 A 
HETATM   20  C   UNK N   1      33.062  52.899  44.431  0.00  0.00    -0.002 A 
HETATM   21  C   UNK N   1      32.129  52.528  43.439  0.00  0.00     0.092 A 
HETATM   22  C   UNK N   1      33.898  51.914  44.960  0.00  0.00     0.020 A 
HETATM   23  O   UNK N   1      32.055  51.268  43.022  0.00  0.00    -0.275 OA
HETATM   24  C   UNK N   1      31.276  53.487  42.897  0.00  0.00     0.075 A 
HETATM   25  C   UNK N   1      32.838  50.308  43.509  0.00  0.00     0.288 A 
HETATM   26  O   UNK N   1      32.726  49.171  43.093  0.00  0.00    -0.260 OA
HETATM   27  C   UNK N   1      33.786  50.604  44.496  0.00  0.00     0.083 A 
ENDBRANCH  16  17
ENDBRANCH  15  16
ENDBRANCH   1  15
BRANCH   2  28
HETATM   28  O   UNK N   1      31.405  56.303  40.500  0.00  0.00    -0.390 OA
HETATM   29  H   UNK N   1      31.316  56.335  41.489  0.00  0.00     0.210 HD
ENDBRANCH   2  28
BRANCH   7  30
HETATM   30  O   UNK N   1      27.697  50.952  39.275  0.00  0.00    -0.395 OA
HETATM   31  H   UNK N   1      28.501  51.316  39.717  0.00  0.00     0.210 HD
ENDBRANCH   7  30
TORSDOF 5
ENDMDL
MODEL 2
REMARK VINA RESULT:      -7.1      1.484      2.060
REMARK  5 active torsions:
REMARK  status: ('A' for Active; 'I' for Inactive)
REMARK    1  A    between atoms: C_8  and  O_10 
REMARK    2  A    between atoms: O_10  and  C_11 
REMARK    3  A    between atoms: C_11  and  C_12 
REMARK    4  A    between atoms: C_13  and  O_14 
REMARK    5  A    between atoms: C_20  and  O_21 
ROOT
HETATM    1  C   UNK N   1      28.702  55.989  41.369  0.00  0.00     0.052 C 
HETATM    2  C   UNK N   1      27.887  57.341  41.455  0.00  0.00     0.060 C 
HETATM    3  C   UNK N   1      27.701  57.889  40.018  0.00  0.00     0.038 C 
HETATM    4  C   UNK N   1      27.142  56.870  39.011  0.00  0.00     0.009 C 
HETATM    5  C   UNK N   1      28.082  55.633  38.928  0.00  0.00     0.004 C 
HETATM    6  C   UNK N   1      27.871  54.711  37.654  0.00  0.00    -0.017 C 
HETATM    7  C   UNK N   1      28.929  53.550  37.680  0.00  0.00     0.126 C 
HETATM    8  C   UNK N   1      28.940  52.788  39.021  0.00  0.00     0.033 C 
HETATM    9  C   UNK N   1      29.199  53.732  40.216  0.00  0.00     0.012 C 
HETATM   10  C   UNK N   1      28.157  54.898  40.333  0.00  0.00    -0.031 C 
HETATM   11  C   UNK N   1      26.806  54.266  40.797  0.00  0.00     0.016 C 
HETATM   12  C   UNK N   1      28.101  55.534  36.355  0.00  0.00     0.018 C 
HETATM   13  C   UNK N   1      26.437  54.131  37.531  0.00  0.00     0.018 C 
HETATM   14  C   UNK N   1      26.524  57.266  42.194  0.00  0.00     0.046 C 
ENDROOT
BRANCH   1  15
HETATM   15  C   UNK N   1      29.112  55.453  42.765  0.00  0.00     0.184 C 
BRANCH  15  16
HETATM   16  O   UNK N   1      30.415  55.762  43.092  0.00  0.00    -0.351 OA
BRANCH  16  17
HETATM   17  C   UNK N   1      31.327  54.868  43.552  0.00  0.00     0.071 A 
HETATM   18  C   UNK N   1      32.333  55.318  44.417  0.00  0.00     0.038 A 
HETATM   19  C   UNK N   1      33.289  54.429  44.917  0.00  0.00     0.017 A 
HETATM   20  C   UNK N   1      33.242  53.076  44.556  0.00  0.00    -0.002 A 
HETATM   21  C   UNK N   1      32.234  52.614  43.682  0.00  0.00     0.092 A 
HETATM   22  C   UNK N   1      34.172  52.156  45.044  0.00  0.00     0.020 A 
HETATM   23  O   UNK N   1      32.180  51.332  43.335  0.00  0.00    -0.275 OA
HETATM   24  C   UNK N   1      31.288  53.507  43.183  0.00  0.00     0.075 A 
HETATM   25  C   UNK N   1      33.051  50.433  43.786  0.00  0.00     0.288 A 
HETATM   26  O   UNK N   1      32.952  49.272  43.438  0.00  0.00    -0.260 OA
HETATM   27  C   UNK N   1      34.077  50.820  44.658  0.00  0.00     0.083 A 
ENDBRANCH  16  17
ENDBRANCH  15  16
ENDBRANCH   1  15
BRANCH   2  28
HETATM   28  O   UNK N   1      28.684  58.261  42.172  0.00  0.00    -0.390 OA
HETATM   29  H   UNK N   1      28.090  58.863  42.694  0.00  0.00     0.210 HD
ENDBRANCH   2  28
BRANCH   7  30
HETATM   30  O   UNK N   1      30.232  53.988  37.352  0.00  0.00    -0.395 OA
HETATM   31  H   UNK N   1      30.203  54.912  37.005  0.00  0.00     0.210 HD
ENDBRANCH   7  30
TORSDOF 5
ENDMDL
MODEL 3
REMARK VINA RESULT:      -7.0     19.504     22.379
REMARK  5 active torsions:
REMARK  status: ('A' for Active; 'I' for Inactive)
REMARK    1  A    between atoms: C_8  and  O_10 
REMARK    2  A    between atoms: O_10  and  C_11 
REMARK    3  A    between atoms: C_11  and  C_12 
REMARK    4  A    between atoms: C_13  and  O_14 
REMARK    5  A    between atoms: C_20  and  O_21 
ROOT
HETATM    1  C   UNK N   1      31.178  45.333  61.936  0.00  0.00     0.052 C 
HETATM    2  C   UNK N   1      29.974  46.292  61.575  0.00  0.00     0.060 C 
HETATM    3  C   UNK N   1      29.947  46.481  60.037  0.00  0.00     0.038 C 
HETATM    4  C   UNK N   1      29.985  45.173  59.230  0.00  0.00     0.009 C 
HETATM    5  C   UNK N   1      31.267  44.365  59.586  0.00  0.00     0.004 C 
HETATM    6  C   UNK N   1      31.655  43.226  58.551  0.00  0.00    -0.017 C 
HETATM    7  C   UNK N   1      32.997  42.550  59.010  0.00  0.00     0.126 C 
HETATM    8  C   UNK N   1      32.953  42.085  60.481  0.00  0.00     0.033 C 
HETATM    9  C   UNK N   1      32.620  43.249  61.442  0.00  0.00     0.012 C 
HETATM   10  C   UNK N   1      31.260  43.959  61.121  0.00  0.00    -0.031 C 
HETATM   11  C   UNK N   1      30.117  42.970  61.514  0.00  0.00     0.016 C 
HETATM   12  C   UNK N   1      31.891  43.842  57.143  0.00  0.00     0.018 C 
HETATM   13  C   UNK N   1      30.550  42.155  58.357  0.00  0.00     0.018 C 
HETATM   14  C   UNK N   1      28.579  45.856  62.099  0.00  0.00     0.046 C 
ENDROOT
BRANCH   1  15
HETATM   15  C   UNK N   1      31.417  45.229  63.465  0.00  0.00     0.184 C 
BRANCH  15  16
HETATM   16  O   UNK N   1      32.048  46.341  63.982  0.00  0.00    -0.351 OA
BRANCH  16  17
HETATM   17  C   UNK N   1      33.311  46.724  63.668  0.00  0.00     0.071 A 
HETATM   18  C   UNK N   1      33.606  48.093  63.620  0.00  0.00     0.038 A 
HETATM   19  C   UNK N   1      34.896  48.531  63.305  0.00  0.00     0.017 A 
HETATM   20  C   UNK N   1      35.905  47.597  63.038  0.00  0.00    -0.002 A 
HETATM   21  C   UNK N   1      35.616  46.216  63.079  0.00  0.00     0.092 A 
HETATM   22  C   UNK N   1      37.208  47.995  62.731  0.00  0.00     0.020 A 
HETATM   23  O   UNK N   1      36.568  45.321  62.829  0.00  0.00    -0.275 OA
HETATM   24  C   UNK N   1      34.328  45.787  63.388  0.00  0.00     0.075 A 
HETATM   25  C   UNK N   1      37.817  45.672  62.536  0.00  0.00     0.288 A 
HETATM   26  O   UNK N   1      38.649  44.812  62.319  0.00  0.00    -0.260 OA
HETATM   27  C   UNK N   1      38.176  47.025  62.478  0.00  0.00     0.083 A 
ENDBRANCH  16  17
ENDBRANCH  15  16
ENDBRANCH   1  15
BRANCH   2  28
HETATM   28  O   UNK N   1      30.251  47.546  62.163  0.00  0.00    -0.390 OA
HETATM   29  H   UNK N   1      31.218  47.747  62.052  0.00  0.00     0.210 HD
ENDBRANCH   2  28
BRANCH   7  30
HETATM   30  O   UNK N   1      34.127  43.367  58.787  0.00  0.00    -0.395 OA
HETATM   31  H   UNK N   1      34.955  42.845  58.917  0.00  0.00     0.210 HD
ENDBRANCH   7  30
TORSDOF 5
ENDMDL
MODEL 4
REMARK VINA RESULT:      -6.9      1.695      4.528
REMARK  5 active torsions:
REMARK  status: ('A' for Active; 'I' for Inactive)
REMARK    1  A    between atoms: C_8  and  O_10 
REMARK    2  A    between atoms: O_10  and  C_11 
REMARK    3  A    between atoms: C_11  and  C_12 
REMARK    4  A    between atoms: C_13  and  O_14 
REMARK    5  A    between atoms: C_20  and  O_21 
ROOT
HETATM    1  C   UNK N   1      28.907  52.584  40.209  0.00  0.00     0.052 C 
HETATM    2  C   UNK N   1      27.431  52.042  40.039  0.00  0.00     0.060 C 
HETATM    3  C   UNK N   1      26.471  53.002  40.786  0.00  0.00     0.038 C 
HETATM    4  C   UNK N   1      26.649  54.488  40.434  0.00  0.00     0.009 C 
HETATM    5  C   UNK N   1      28.106  54.938  40.746  0.00  0.00     0.004 C 
HETATM    6  C   UNK N   1      28.322  56.507  40.835  0.00  0.00    -0.017 C 
HETATM    7  C   UNK N   1      29.818  56.799  41.218  0.00  0.00     0.126 C 
HETATM    8  C   UNK N   1      30.818  56.070  40.297  0.00  0.00     0.033 C 
HETATM    9  C   UNK N   1      30.587  54.542  40.292  0.00  0.00     0.012 C 
HETATM   10  C   UNK N   1      29.141  54.127  39.856  0.00  0.00    -0.031 C 
HETATM   11  C   UNK N   1      29.021  54.407  38.324  0.00  0.00     0.016 C 
HETATM   12  C   UNK N   1      27.420  57.108  41.950  0.00  0.00     0.018 C 
HETATM   13  C   UNK N   1      27.940  57.266  39.537  0.00  0.00     0.018 C 
HETATM   14  C   UNK N   1      26.956  51.817  38.578  0.00  0.00     0.046 C 
ENDROOT
BRANCH   1  15
HETATM   15  C   UNK N   1      29.969  51.595  39.665  0.00  0.00     0.184 C 
BRANCH  15  16
HETATM   16  O   UNK N   1      30.214  50.548  40.527  0.00  0.00    -0.351 OA
BRANCH  16  17
HETATM   17  C   UNK N   1      31.095  50.590  41.558  0.00  0.00     0.071 A 
HETATM   18  C   UNK N   1      31.650  49.388  42.017  0.00  0.00     0.038 A 
HETATM   19  C   UNK N   1      32.565  49.387  43.075  0.00  0.00     0.017 A 
HETATM   20  C   UNK N   1      32.935  50.595  43.680  0.00  0.00    -0.002 A 
HETATM   21  C   UNK N   1      32.378  51.810  43.227  0.00  0.00     0.092 A 
HETATM   22  C   UNK N   1      33.855  50.636  44.730  0.00  0.00     0.020 A 
HETATM   23  O   UNK N   1      32.723  52.962  43.794  0.00  0.00    -0.275 OA
HETATM   24  C   UNK N   1      31.462  51.803  42.177  0.00  0.00     0.075 A 
HETATM   25  C   UNK N   1      33.598  53.031  44.794  0.00  0.00     0.288 A 
HETATM   26  O   UNK N   1      33.880  54.112  45.273  0.00  0.00    -0.260 OA
HETATM   27  C   UNK N   1      34.192  51.865  45.294  0.00  0.00     0.083 A 
ENDBRANCH  16  17
ENDBRANCH  15  16
ENDBRANCH   1  15
BRANCH   2  28
HETATM   28  O   UNK N   1      27.374  50.784  40.679  0.00  0.00    -0.390 OA
HETATM   29  H   UNK N   1      28.175  50.681  41.258  0.00  0.00     0.210 HD
ENDBRANCH   2  28
BRANCH   7  30
HETATM   30  O   UNK N   1      30.102  56.516  42.573  0.00  0.00    -0.395 OA
HETATM   31  H   UNK N   1      29.840  57.280  43.142  0.00  0.00     0.210 HD
ENDBRANCH   7  30
TORSDOF 5
ENDMDL
MODEL 5
REMARK VINA RESULT:      -6.5     15.684     18.989
REMARK  5 active torsions:
REMARK  status: ('A' for Active; 'I' for Inactive)
REMARK    1  A    between atoms: C_8  and  O_10 
REMARK    2  A    between atoms: O_10  and  C_11 
REMARK    3  A    between atoms: C_11  and  C_12 
REMARK    4  A    between atoms: C_13  and  O_14 
REMARK    5  A    between atoms: C_20  and  O_21 
ROOT
HETATM    1  C   UNK N   1      30.062  43.352  57.298  0.00  0.00     0.052 C 
HETATM    2  C   UNK N   1      31.608  43.665  57.413  0.00  0.00     0.060 C 
HETATM    3  C   UNK N   1      31.800  45.201  57.329  0.00  0.00     0.038 C 
HETATM    4  C   UNK N   1      30.912  46.011  58.287  0.00  0.00     0.009 C 
HETATM    5  C   UNK N   1      29.411  45.706  58.009  0.00  0.00     0.004 C 
HETATM    6  C   UNK N   1      28.387  46.757  58.612  0.00  0.00    -0.017 C 
HETATM    7  C   UNK N   1      26.928  46.350  58.194  0.00  0.00     0.126 C 
HETATM    8  C   UNK N   1      26.603  44.880  58.531  0.00  0.00     0.033 C 
HETATM    9  C   UNK N   1      27.606  43.905  57.874  0.00  0.00     0.012 C 
HETATM   10  C   UNK N   1      29.098  44.173  58.276  0.00  0.00    -0.031 C 
HETATM   11  C   UNK N   1      29.260  43.738  59.767  0.00  0.00     0.016 C 
HETATM   12  C   UNK N   1      28.670  48.172  58.033  0.00  0.00     0.018 C 
HETATM   13  C   UNK N   1      28.483  46.911  60.153  0.00  0.00     0.018 C 
HETATM   14  C   UNK N   1      32.325  43.090  58.663  0.00  0.00     0.046 C 
ENDROOT
BRANCH   1  15
HETATM   15  C   UNK N   1      29.771  41.834  57.176  0.00  0.00     0.184 C 
BRANCH  15  16
HETATM   16  O   UNK N   1      29.995  41.349  55.905  0.00  0.00    -0.351 OA
BRANCH  16  17
HETATM   17  C   UNK N   1      29.329  41.761  54.796  0.00  0.00     0.071 A 
HETATM   18  C   UNK N   1      30.034  41.865  53.590  0.00  0.00     0.038 A 
HETATM   19  C   UNK N   1      29.385  42.282  52.423  0.00  0.00     0.017 A 
HETATM   20  C   UNK N   1      28.020  42.594  52.456  0.00  0.00    -0.002 A 
HETATM   21  C   UNK N   1      27.303  42.496  53.668  0.00  0.00     0.092 A 
HETATM   22  C   UNK N   1      27.335  43.002  51.309  0.00  0.00     0.020 A 
HETATM   23  O   UNK N   1      26.007  42.788  53.709  0.00  0.00    -0.275 OA
HETATM   24  C   UNK N   1      27.957  42.086  54.828  0.00  0.00     0.075 A 
HETATM   25  C   UNK N   1      25.329  43.178  52.633  0.00  0.00     0.288 A 
HETATM   26  O   UNK N   1      24.143  43.430  52.726  0.00  0.00    -0.260 OA
HETATM   27  C   UNK N   1      25.976  43.296  51.396  0.00  0.00     0.083 A 
ENDBRANCH  16  17
ENDBRANCH  15  16
ENDBRANCH   1  15
BRANCH   2  28
HETATM   28  O   UNK N   1      32.233  43.086  56.287  0.00  0.00    -0.390 OA
HETATM   29  H   UNK N   1      32.609  43.809  55.719  0.00  0.00     0.210 HD
ENDBRANCH   2  28
BRANCH   7  30
HETATM   30  O   UNK N   1      26.654  46.615  56.833  0.00  0.00    -0.395 OA
HETATM   31  H   UNK N   1      25.954  46.002  56.502  0.00  0.00     0.210 HD
ENDBRANCH   7  30
TORSDOF 5
ENDMDL
MODEL 6
REMARK VINA RESULT:      -6.5      1.772      4.333
REMARK  5 active torsions:
REMARK  status: ('A' for Active; 'I' for Inactive)
REMARK    1  A    between atoms: C_8  and  O_10 
REMARK    2  A    between atoms: O_10  and  C_11 
REMARK    3  A    between atoms: C_11  and  C_12 
REMARK    4  A    between atoms: C_13  and  O_14 
REMARK    5  A    between atoms: C_20  and  O_21 
ROOT
HETATM    1  C   UNK N   1      28.173  53.163  39.661  0.00  0.00     0.052 C 
HETATM    2  C   UNK N   1      27.161  52.152  38.987  0.00  0.00     0.060 C 
HETATM    3  C   UNK N   1      25.727  52.528  39.435  0.00  0.00     0.038 C 
HETATM    4  C   UNK N   1      25.366  54.011  39.248  0.00  0.00     0.009 C 
HETATM    5  C   UNK N   1      26.360  54.906  40.044  0.00  0.00     0.004 C 
HETATM    6  C   UNK N   1      25.876  56.396  40.290  0.00  0.00    -0.017 C 
HETATM    7  C   UNK N   1      26.951  57.148  41.156  0.00  0.00     0.126 C 
HETATM    8  C   UNK N   1      28.373  57.029  40.571  0.00  0.00     0.033 C 
HETATM    9  C   UNK N   1      28.804  55.555  40.402  0.00  0.00     0.012 C 
HETATM   10  C   UNK N   1      27.838  54.719  39.494  0.00  0.00    -0.031 C 
HETATM   11  C   UNK N   1      28.039  55.212  38.026  0.00  0.00     0.016 C 
HETATM   12  C   UNK N   1      24.539  56.400  41.083  0.00  0.00     0.018 C 
HETATM   13  C   UNK N   1      25.588  57.184  38.985  0.00  0.00     0.018 C 
HETATM   14  C   UNK N   1      27.243  52.040  37.441  0.00  0.00     0.046 C 
ENDROOT
BRANCH   1  15
HETATM   15  C   UNK N   1      29.654  52.761  39.436  0.00  0.00     0.184 C 
BRANCH  15  16
HETATM   16  O   UNK N   1      30.038  51.689  40.213  0.00  0.00    -0.351 OA
BRANCH  16  17
HETATM   17  C   UNK N   1      30.874  51.772  41.279  0.00  0.00     0.071 A 
HETATM   18  C   UNK N   1      31.622  50.643  41.636  0.00  0.00     0.038 A 
HETATM   19  C   UNK N   1      32.498  50.687  42.725  0.00  0.00     0.017 A 
HETATM   20  C   UNK N   1      32.633  51.868  43.466  0.00  0.00    -0.002 A 
HETATM   21  C   UNK N   1      31.880  53.009  43.117  0.00  0.00     0.092 A 
HETATM   22  C   UNK N   1      33.506  51.954  44.553  0.00  0.00     0.020 A 
HETATM   23  O   UNK N   1      32.002  54.136  43.812  0.00  0.00    -0.275 OA
HETATM   24  C   UNK N   1      31.005  52.957  42.034  0.00  0.00     0.075 A 
HETATM   25  C   UNK N   1      32.827  54.247  44.850  0.00  0.00     0.288 A 
HETATM   26  O   UNK N   1      32.902  55.302  45.449  0.00  0.00    -0.260 OA
HETATM   27  C   UNK N   1      33.606  53.155  45.253  0.00  0.00     0.083 A 
ENDBRANCH  16  17
ENDBRANCH  15  16
ENDBRANCH   1  15
BRANCH   2  28
HETATM   28  O   UNK N   1      27.455  50.869  39.499  0.00  0.00    -0.390 OA
HETATM   29  H   UNK N   1      27.364  50.888  40.489  0.00  0.00     0.210 HD
ENDBRANCH   2  28
BRANCH   7  30
HETATM   30  O   UNK N   1      26.941  56.747  42.511  0.00  0.00    -0.395 OA
HETATM   31  H   UNK N   1      26.044  56.421  42.763  0.00  0.00     0.210 HD
ENDBRANCH   7  30
TORSDOF 5
ENDMDL
MODEL 7
REMARK VINA RESULT:      -6.2     16.458     21.203
REMARK  5 active torsions:
REMARK  status: ('A' for Active; 'I' for Inactive)
REMARK    1  A    between atoms: C_8  and  O_10 
REMARK    2  A    between atoms: O_10  and  C_11 
REMARK    3  A    between atoms: C_11  and  C_12 
REMARK    4  A    between atoms: C_13  and  O_14 
REMARK    5  A    between atoms: C_20  and  O_21 
ROOT
HETATM    1  C   UNK N   1      29.446  40.293  58.762  0.00  0.00     0.052 C 
HETATM    2  C   UNK N   1      29.800  39.103  59.741  0.00  0.00     0.060 C 
HETATM    3  C   UNK N   1      31.318  39.159  60.045  0.00  0.00     0.038 C 
HETATM    4  C   UNK N   1      31.830  40.534  60.501  0.00  0.00     0.009 C 
HETATM    5  C   UNK N   1      31.526  41.604  59.413  0.00  0.00     0.004 C 
HETATM    6  C   UNK N   1      32.350  42.954  59.546  0.00  0.00    -0.017 C 
HETATM    7  C   UNK N   1      31.982  43.900  58.347  0.00  0.00     0.126 C 
HETATM    8  C   UNK N   1      30.460  44.097  58.192  0.00  0.00     0.033 C 
HETATM    9  C   UNK N   1      29.722  42.751  58.017  0.00  0.00     0.012 C 
HETATM   10  C   UNK N   1      29.960  41.745  59.196  0.00  0.00    -0.031 C 
HETATM   11  C   UNK N   1      29.191  42.297  60.438  0.00  0.00     0.016 C 
HETATM   12  C   UNK N   1      33.874  42.659  59.469  0.00  0.00     0.018 C 
HETATM   13  C   UNK N   1      32.136  43.687  60.897  0.00  0.00     0.018 C 
HETATM   14  C   UNK N   1      28.979  39.040  61.057  0.00  0.00     0.046 C 
ENDROOT
BRANCH   1  15
HETATM   15  C   UNK N   1      27.988  40.219  58.239  0.00  0.00     0.184 C 
BRANCH  15  16
HETATM   16  O   UNK N   1      27.910  39.740  56.949  0.00  0.00    -0.351 OA
BRANCH  16  17
HETATM   17  C   UNK N   1      28.152  40.480  55.837  0.00  0.00     0.071 A 
HETATM   18  C   UNK N   1      29.369  40.307  55.166  0.00  0.00     0.038 A 
HETATM   19  C   UNK N   1      29.657  41.047  54.015  0.00  0.00     0.017 A 
HETATM   20  C   UNK N   1      28.721  41.966  53.523  0.00  0.00    -0.002 A 
HETATM   21  C   UNK N   1      27.493  42.150  54.194  0.00  0.00     0.092 A 
HETATM   22  C   UNK N   1      28.967  42.714  52.370  0.00  0.00     0.020 A 
HETATM   23  O   UNK N   1      26.597  43.018  53.734  0.00  0.00    -0.275 OA
HETATM   24  C   UNK N   1      27.216  41.414  55.344  0.00  0.00     0.075 A 
HETATM   25  C   UNK N   1      26.804  43.742  52.638  0.00  0.00     0.288 A 
HETATM   26  O   UNK N   1      25.949  44.520  52.260  0.00  0.00    -0.260 OA
HETATM   27  C   UNK N   1      28.000  43.611  51.920  0.00  0.00     0.083 A 
ENDBRANCH  16  17
ENDBRANCH  15  16
ENDBRANCH   1  15
BRANCH   2  28
HETATM   28  O   UNK N   1      29.538  37.902  59.045  0.00  0.00    -0.390 OA
HETATM   29  H   UNK N   1      30.220  37.788  58.332  0.00  0.00     0.210 HD
ENDBRANCH   2  28
BRANCH   7  30
HETATM   30  O   UNK N   1      32.551  43.480  57.123  0.00  0.00    -0.395 OA
HETATM   31  H   UNK N   1      33.205  42.758  57.282  0.00  0.00     0.210 HD
ENDBRANCH   7  30
TORSDOF 5
ENDMDL
MODEL 8
REMARK VINA RESULT:      -6.2      1.882      4.388
REMARK  5 active torsions:
REMARK  status: ('A' for Active; 'I' for Inactive)
REMARK    1  A    between atoms: C_8  and  O_10 
REMARK    2  A    between atoms: O_10  and  C_11 
REMARK    3  A    between atoms: C_11  and  C_12 
REMARK    4  A    between atoms: C_13  and  O_14 
REMARK    5  A    between atoms: C_20  and  O_21 
ROOT
HETATM    1  C   UNK N   1      27.699  53.480  39.787  0.00  0.00     0.052 C 
HETATM    2  C   UNK N   1      26.184  53.342  40.220  0.00  0.00     0.060 C 
HETATM    3  C   UNK N   1      25.606  54.765  40.427  0.00  0.00     0.038 C 
HETATM    4  C   UNK N   1      25.849  55.731  39.257  0.00  0.00     0.009 C 
HETATM    5  C   UNK N   1      27.376  55.875  38.993  0.00  0.00     0.004 C 
HETATM    6  C   UNK N   1      27.793  57.132  38.119  0.00  0.00    -0.017 C 
HETATM    7  C   UNK N   1      29.359  57.175  37.996  0.00  0.00     0.126 C 
HETATM    8  C   UNK N   1      29.952  55.837  37.509  0.00  0.00     0.033 C 
HETATM    9  C   UNK N   1      29.551  54.661  38.429  0.00  0.00     0.012 C 
HETATM   10  C   UNK N   1      28.001  54.477  38.572  0.00  0.00    -0.031 C 
HETATM   11  C   UNK N   1      27.472  53.926  37.210  0.00  0.00     0.016 C 
HETATM   12  C   UNK N   1      27.336  58.443  38.817  0.00  0.00     0.018 C 
HETATM   13  C   UNK N   1      27.141  57.160  36.712  0.00  0.00     0.018 C 
HETATM   14  C   UNK N   1      25.279  52.515  39.269  0.00  0.00     0.046 C 
ENDROOT
BRANCH   1  15
HETATM   15  C   UNK N   1      28.430  52.114  39.740  0.00  0.00     0.184 C 
BRANCH  15  16
HETATM   16  O   UNK N   1      29.803  52.245  39.736  0.00  0.00    -0.351 OA
BRANCH  16  17
HETATM   17  C   UNK N   1      30.586  52.170  40.842  0.00  0.00     0.071 A 
HETATM   18  C   UNK N   1      31.260  50.971  41.108  0.00  0.00     0.038 A 
HETATM   19  C   UNK N   1      32.080  50.853  42.234  0.00  0.00     0.017 A 
HETATM   20  C   UNK N   1      32.235  51.941  43.103  0.00  0.00    -0.002 A 
HETATM   21  C   UNK N   1      31.557  53.151  42.845  0.00  0.00     0.092 A 
HETATM   22  C   UNK N   1      33.055  51.865  44.231  0.00  0.00     0.020 A 
HETATM   23  O   UNK N   1      31.699  54.190  43.663  0.00  0.00    -0.275 OA
HETATM   24  C   UNK N   1      30.737  53.260  41.724  0.00  0.00     0.075 A 
HETATM   25  C   UNK N   1      32.474  54.147  44.743  0.00  0.00     0.288 A 
HETATM   26  O   UNK N   1      32.570  55.128  45.455  0.00  0.00    -0.260 OA
HETATM   27  C   UNK N   1      33.178  52.978  45.060  0.00  0.00     0.083 A 
ENDBRANCH  16  17
ENDBRANCH  15  16
ENDBRANCH   1  15
BRANCH   2  28
HETATM   28  O   UNK N   1      26.169  52.680  41.468  0.00  0.00    -0.390 OA
HETATM   29  H   UNK N   1      27.103  52.461  41.728  0.00  0.00     0.210 HD
ENDBRANCH   2  28
BRANCH   7  30
HETATM   30  O   UNK N   1      29.992  57.587  39.191  0.00  0.00    -0.395 OA
HETATM   31  H   UNK N   1      30.925  57.852  39.007  0.00  0.00     0.210 HD
ENDBRANCH   7  30
TORSDOF 5
ENDMDL
MODEL 9
REMARK VINA RESULT:      -6.2     18.917     21.468
REMARK  5 active torsions:
REMARK  status: ('A' for Active; 'I' for Inactive)
REMARK    1  A    between atoms: C_8  and  O_10 
REMARK    2  A    between atoms: O_10  and  C_11 
REMARK    3  A    between atoms: C_11  and  C_12 
REMARK    4  A    between atoms: C_13  and  O_14 
REMARK    5  A    between atoms: C_20  and  O_21 
ROOT
HETATM    1  C   UNK N   1      31.101  42.485  58.559  0.00  0.00     0.052 C 
HETATM    2  C   UNK N   1      31.808  43.501  57.574  0.00  0.00     0.060 C 
HETATM    3  C   UNK N   1      31.834  42.869  56.160  0.00  0.00     0.038 C 
HETATM    4  C   UNK N   1      30.476  42.344  55.667  0.00  0.00     0.009 C 
HETATM    5  C   UNK N   1      29.929  41.272  56.654  0.00  0.00     0.004 C 
HETATM    6  C   UNK N   1      28.772  40.353  56.077  0.00  0.00    -0.017 C 
HETATM    7  C   UNK N   1      28.374  39.287  57.162  0.00  0.00     0.126 C 
HETATM    8  C   UNK N   1      28.059  39.923  58.531  0.00  0.00     0.033 C 
HETATM    9  C   UNK N   1      29.242  40.764  59.060  0.00  0.00     0.012 C 
HETATM   10  C   UNK N   1      29.684  41.910  58.087  0.00  0.00    -0.031 C 
HETATM   11  C   UNK N   1      28.565  43.000  58.117  0.00  0.00     0.016 C 
HETATM   12  C   UNK N   1      29.273  39.588  54.820  0.00  0.00     0.018 C 
HETATM   13  C   UNK N   1      27.519  41.141  55.612  0.00  0.00     0.018 C 
HETATM   14  C   UNK N   1      31.203  44.930  57.526  0.00  0.00     0.046 C 
ENDROOT
BRANCH   1  15
HETATM   15  C   UNK N   1      31.191  42.933  60.040  0.00  0.00     0.184 C 
BRANCH  15  16
HETATM   16  O   UNK N   1      32.364  42.534  60.646  0.00  0.00    -0.351 OA
BRANCH  16  17
HETATM   17  C   UNK N   1      33.153  43.340  61.401  0.00  0.00     0.071 A 
HETATM   18  C   UNK N   1      32.560  44.101  62.416  0.00  0.00     0.038 A 
HETATM   19  C   UNK N   1      33.338  44.941  63.219  0.00  0.00     0.017 A 
HETATM   20  C   UNK N   1      34.721  45.022  63.013  0.00  0.00    -0.002 A 
HETATM   21  C   UNK N   1      35.326  44.262  61.989  0.00  0.00     0.092 A 
HETATM   22  C   UNK N   1      35.532  45.840  63.802  0.00  0.00     0.020 A 
HETATM   23  O   UNK N   1      36.638  44.330  61.786  0.00  0.00    -0.275 OA
HETATM   24  C   UNK N   1      34.545  43.431  61.189  0.00  0.00     0.075 A 
HETATM   25  C   UNK N   1      37.435  45.099  62.523  0.00  0.00     0.288 A 
HETATM   26  O   UNK N   1      38.629  45.121  62.296  0.00  0.00    -0.260 OA
HETATM   27  C   UNK N   1      36.903  45.880  63.557  0.00  0.00     0.083 A 
ENDBRANCH  16  17
ENDBRANCH  15  16
ENDBRANCH   1  15
BRANCH   2  28
HETATM   28  O   UNK N   1      33.142  43.643  58.013  0.00  0.00    -0.390 OA
HETATM   29  H   UNK N   1      33.607  42.770  57.918  0.00  0.00     0.210 HD
ENDBRANCH   2  28
BRANCH   7  30
HETATM   30  O   UNK N   1      29.340  38.265  57.305  0.00  0.00    -0.395 OA
HETATM   31  H   UNK N   1      30.228  38.658  57.477  0.00  0.00     0.210 HD
ENDBRANCH   7  30
TORSDOF 5
ENDMDL
