MODEL 1
REMARK VINA RESULT:      -7.0      0.000      0.000
REMARK  5 active torsions:
REMARK  status: ('A' for Active; 'I' for Inactive)
REMARK    1  A    between atoms: C_8  and  O_10 
REMARK    2  A    between atoms: O_10  and  C_11 
REMARK    3  A    between atoms: C_11  and  C_12 
REMARK    4  A    between atoms: C_13  and  O_14 
REMARK    5  A    between atoms: C_20  and  O_21 
ROOT
HETATM    1  C   UNK N   1      29.264  55.956  40.750  0.00  0.00     0.052 C 
HETATM    2  C   UNK N   1      28.716  57.407  40.417  0.00  0.00     0.060 C 
HETATM    3  C   UNK N   1      27.251  57.298  39.936  0.00  0.00     0.038 C 
HETATM    4  C   UNK N   1      27.039  56.293  38.801  0.00  0.00     0.009 C 
HETATM    5  C   UNK N   1      27.483  54.874  39.246  0.00  0.00     0.004 C 
HETATM    6  C   UNK N   1      27.005  53.710  38.264  0.00  0.00    -0.017 C 
HETATM    7  C   UNK N   1      27.856  52.394  38.474  0.00  0.00     0.126 C 
HETATM    8  C   UNK N   1      28.311  52.284  39.928  0.00  0.00     0.033 C 
HETATM    9  C   UNK N   1      29.290  53.423  40.304  0.00  0.00     0.012 C 
HETATM   10  C   UNK N   1      28.998  54.833  39.648  0.00  0.00    -0.031 C 
HETATM   11  C   UNK N   1      29.926  54.994  38.401  0.00  0.00     0.016 C 
HETATM   12  C   UNK N   1      25.507  53.427  38.590  0.00  0.00     0.018 C 
HETATM   13  C   UNK N   1      27.069  54.095  36.764  0.00  0.00     0.018 C 
HETATM   14  C   UNK N   1      29.549  58.218  39.381  0.00  0.00     0.046 C 
ENDROOT
BRANCH   1  15
HETATM   15  C   UNK N   1      30.741  55.961  41.239  0.00  0.00     0.184 C 
BRANCH  15  16
HETATM   16  O   UNK N   1      30.799  55.810  42.609  0.00  0.00    -0.351 OA
BRANCH  16  17
HETATM   17  C   UNK N   1      31.555  54.881  43.246  0.00  0.00     0.071 A 
HETATM   18  C   UNK N   1      32.475  55.317  44.206  0.00  0.00     0.038 A 
HETATM   19  C   UNK N   1      33.318  54.406  44.846  0.00  0.00     0.017 A 
HETATM   20  C   UNK N   1      33.234  53.043  44.541  0.00  0.00    -0.002 A 
HETATM   21  C   UNK N   1      32.290  52.587  43.595  0.00  0.00     0.092 A 
HETATM   22  C   UNK N   1      34.071  52.109  45.155  0.00  0.00     0.020 A 
HETATM   23  O   UNK N   1      32.200  51.291  43.308  0.00  0.00    -0.275 OA
HETATM   24  C   UNK N   1      31.457  53.505  42.949  0.00  0.00     0.075 A 
HETATM   25  C   UNK N   1      32.981  50.377  43.883  0.00  0.00     0.288 A 
HETATM   26  O   UNK N   1      32.856  49.204  43.587  0.00  0.00    -0.260 OA
HETATM   27  C   UNK N   1      33.945  50.762  44.823  0.00  0.00     0.083 A 
ENDBRANCH  16  17
ENDBRANCH  15  16
ENDBRANCH   1  15
BRANCH   2  28
HETATM   28  O   UNK N   1      28.649  58.153  41.617  0.00  0.00    -0.390 OA
HETATM   29  H   UNK N   1      28.434  57.562  42.383  0.00  0.00     0.210 HD
ENDBRANCH   2  28
BRANCH   7  30
HETATM   30  O   UNK N   1      27.120  51.260  38.087  0.00  0.00    -0.395 OA
HETATM   31  H   UNK N   1      27.767  50.516  37.963  0.00  0.00     0.210 HD
ENDBRANCH   7  30
TORSDOF 5
ENDMDL
MODEL 2
REMARK VINA RESULT:      -6.5     18.579     22.389
REMARK  5 active torsions:
REMARK  status: ('A' for Active; 'I' for Inactive)
REMARK    1  A    between atoms: C_8  and  O_10 
REMARK    2  A    between atoms: O_10  and  C_11 
REMARK    3  A    between atoms: C_11  and  C_12 
REMARK    4  A    between atoms: C_13  and  O_14 
REMARK    5  A    between atoms: C_20  and  O_21 
ROOT
HETATM    1  C   UNK N   1      32.290  43.506  61.047  0.00  0.00     0.052 C 
HETATM    2  C   UNK N   1      32.931  42.446  60.057  0.00  0.00     0.060 C 
HETATM    3  C   UNK N   1      32.975  43.043  58.632  0.00  0.00     0.038 C 
HETATM    4  C   UNK N   1      31.633  43.595  58.145  0.00  0.00     0.009 C 
HETATM    5  C   UNK N   1      31.131  44.713  59.097  0.00  0.00     0.004 C 
HETATM    6  C   UNK N   1      29.919  45.568  58.507  0.00  0.00    -0.017 C 
HETATM    7  C   UNK N   1      29.146  46.338  59.651  0.00  0.00     0.126 C 
HETATM    8  C   UNK N   1      30.104  46.704  60.784  0.00  0.00     0.033 C 
HETATM    9  C   UNK N   1      30.654  45.440  61.492  0.00  0.00     0.012 C 
HETATM   10  C   UNK N   1      30.932  44.191  60.562  0.00  0.00    -0.031 C 
HETATM   11  C   UNK N   1      29.710  43.222  60.664  0.00  0.00     0.016 C 
HETATM   12  C   UNK N   1      30.531  46.591  57.503  0.00  0.00     0.018 C 
HETATM   13  C   UNK N   1      28.891  44.725  57.711  0.00  0.00     0.018 C 
HETATM   14  C   UNK N   1      32.236  41.054  60.020  0.00  0.00     0.046 C 
ENDROOT
BRANCH   1  15
HETATM   15  C   UNK N   1      32.197  42.992  62.513  0.00  0.00     0.184 C 
BRANCH  15  16
HETATM   16  O   UNK N   1      33.354  43.284  63.204  0.00  0.00    -0.351 OA
BRANCH  16  17
HETATM   17  C   UNK N   1      33.911  44.520  63.275  0.00  0.00     0.071 A 
HETATM   18  C   UNK N   1      33.172  45.548  63.872  0.00  0.00     0.038 A 
HETATM   19  C   UNK N   1      33.676  46.849  63.917  0.00  0.00     0.017 A 
HETATM   20  C   UNK N   1      34.936  47.130  63.378  0.00  0.00    -0.002 A 
HETATM   21  C   UNK N   1      35.704  46.095  62.799  0.00  0.00     0.092 A 
HETATM   22  C   UNK N   1      35.463  48.422  63.397  0.00  0.00     0.020 A 
HETATM   23  O   UNK N   1      36.906  46.355  62.293  0.00  0.00    -0.275 OA
HETATM   24  C   UNK N   1      35.188  44.796  62.746  0.00  0.00     0.075 A 
HETATM   25  C   UNK N   1      37.436  47.577  62.303  0.00  0.00     0.288 A 
HETATM   26  O   UNK N   1      38.542  47.760  61.829  0.00  0.00    -0.260 OA
HETATM   27  C   UNK N   1      36.725  48.651  62.853  0.00  0.00     0.083 A 
ENDBRANCH  16  17
ENDBRANCH  15  16
ENDBRANCH   1  15
BRANCH   2  28
HETATM   28  O   UNK N   1      34.288  42.257  60.412  0.00  0.00    -0.390 OA
HETATM   29  H   UNK N   1      34.742  43.130  60.527  0.00  0.00     0.210 HD
ENDBRANCH   2  28
BRANCH   7  30
HETATM   30  O   UNK N   1      28.511  47.483  59.138  0.00  0.00    -0.395 OA
HETATM   31  H   UNK N   1      29.213  48.171  58.995  0.00  0.00     0.210 HD
ENDBRANCH   7  30
TORSDOF 5
ENDMDL
MODEL 3
REMARK VINA RESULT:      -6.5     15.342     18.899
REMARK  5 active torsions:
REMARK  status: ('A' for Active; 'I' for Inactive)
REMARK    1  A    between atoms: C_8  and  O_10 
REMARK    2  A    between atoms: O_10  and  C_11 
REMARK    3  A    between atoms: C_11  and  C_12 
REMARK    4  A    between atoms: C_13  and  O_14 
REMARK    5  A    between atoms: C_20  and  O_21 
ROOT
HETATM    1  C   UNK N   1      30.256  43.761  57.468  0.00  0.00     0.052 C 
HETATM    2  C   UNK N   1      31.813  43.535  57.267  0.00  0.00     0.060 C 
HETATM    3  C   UNK N   1      32.077  43.087  55.811  0.00  0.00     0.038 C 
HETATM    4  C   UNK N   1      31.227  41.897  55.360  0.00  0.00     0.009 C 
HETATM    5  C   UNK N   1      29.717  42.239  55.470  0.00  0.00     0.004 C 
HETATM    6  C   UNK N   1      28.763  41.198  54.724  0.00  0.00    -0.017 C 
HETATM    7  C   UNK N   1      27.276  41.302  55.251  0.00  0.00     0.126 C 
HETATM    8  C   UNK N   1      26.966  42.734  55.684  0.00  0.00     0.033 C 
HETATM    9  C   UNK N   1      27.821  43.155  56.904  0.00  0.00     0.012 C 
HETATM   10  C   UNK N   1      29.302  42.597  56.938  0.00  0.00    -0.031 C 
HETATM   11  C   UNK N   1      29.329  41.339  57.864  0.00  0.00     0.016 C 
HETATM   12  C   UNK N   1      28.810  41.545  53.206  0.00  0.00     0.018 C 
HETATM   13  C   UNK N   1      29.223  39.725  54.859  0.00  0.00     0.018 C 
HETATM   14  C   UNK N   1      32.479  42.531  58.252  0.00  0.00     0.046 C 
ENDROOT
BRANCH   1  15
HETATM   15  C   UNK N   1      29.889  44.210  58.912  0.00  0.00     0.184 C 
BRANCH  15  16
HETATM   16  O   UNK N   1      30.273  45.518  59.126  0.00  0.00    -0.351 OA
BRANCH  16  17
HETATM   17  C   UNK N   1      29.710  46.590  58.513  0.00  0.00     0.071 A 
HETATM   18  C   UNK N   1      28.321  46.746  58.589  0.00  0.00     0.038 A 
HETATM   19  C   UNK N   1      27.688  47.799  57.927  0.00  0.00     0.017 A 
HETATM   20  C   UNK N   1      28.446  48.719  57.193  0.00  0.00    -0.002 A 
HETATM   21  C   UNK N   1      29.850  48.590  57.133  0.00  0.00     0.092 A 
HETATM   22  C   UNK N   1      27.842  49.776  56.510  0.00  0.00     0.020 A 
HETATM   23  O   UNK N   1      30.576  49.467  56.444  0.00  0.00    -0.275 OA
HETATM   24  C   UNK N   1      30.477  47.526  57.789  0.00  0.00     0.075 A 
HETATM   25  C   UNK N   1      30.027  50.488  55.789  0.00  0.00     0.288 A 
HETATM   26  O   UNK N   1      30.736  51.264  55.176  0.00  0.00    -0.260 OA
HETATM   27  C   UNK N   1      28.638  50.670  55.799  0.00  0.00     0.083 A 
ENDBRANCH  16  17
ENDBRANCH  15  16
ENDBRANCH   1  15
BRANCH   2  28
HETATM   28  O   UNK N   1      32.472  44.781  57.387  0.00  0.00    -0.390 OA
HETATM   29  H   UNK N   1      33.158  44.744  58.101  0.00  0.00     0.210 HD
ENDBRANCH   2  28
BRANCH   7  30
HETATM   30  O   UNK N   1      26.370  40.864  54.268  0.00  0.00    -0.395 OA
HETATM   31  H   UNK N   1      25.460  40.904  54.667  0.00  0.00     0.210 HD
ENDBRANCH   7  30
TORSDOF 5
ENDMDL
MODEL 4
REMARK VINA RESULT:      -6.5      2.094      3.341
REMARK  5 active torsions:
REMARK  status: ('A' for Active; 'I' for Inactive)
REMARK    1  A    between atoms: C_8  and  O_10 
REMARK    2  A    between atoms: O_10  and  C_11 
REMARK    3  A    between atoms: C_11  and  C_12 
REMARK    4  A    between atoms: C_13  and  O_14 
REMARK    5  A    between atoms: C_20  and  O_21 
ROOT
HETATM    1  C   UNK N   1      29.186  56.301  41.376  0.00  0.00     0.052 C 
HETATM    2  C   UNK N   1      30.120  55.785  40.202  0.00  0.00     0.060 C 
HETATM    3  C   UNK N   1      29.838  56.612  38.927  0.00  0.00     0.038 C 
HETATM    4  C   UNK N   1      28.359  56.678  38.541  0.00  0.00     0.009 C 
HETATM    5  C   UNK N   1      27.528  57.308  39.691  0.00  0.00     0.004 C 
HETATM    6  C   UNK N   1      26.044  57.719  39.266  0.00  0.00    -0.017 C 
HETATM    7  C   UNK N   1      25.111  57.892  40.531  0.00  0.00     0.126 C 
HETATM    8  C   UNK N   1      25.926  58.379  41.728  0.00  0.00     0.033 C 
HETATM    9  C   UNK N   1      26.964  57.320  42.176  0.00  0.00     0.012 C 
HETATM   10  C   UNK N   1      27.641  56.481  41.017  0.00  0.00    -0.031 C 
HETATM   11  C   UNK N   1      26.895  55.112  40.904  0.00  0.00     0.016 C 
HETATM   12  C   UNK N   1      26.149  59.071  38.498  0.00  0.00     0.018 C 
HETATM   13  C   UNK N   1      25.371  56.710  38.302  0.00  0.00     0.018 C 
HETATM   14  C   UNK N   1      30.013  54.266  39.876  0.00  0.00     0.046 C 
ENDROOT
BRANCH   1  15
HETATM   15  C   UNK N   1      29.393  55.521  42.706  0.00  0.00     0.184 C 
BRANCH  15  16
HETATM   16  O   UNK N   1      30.662  55.738  43.203  0.00  0.00    -0.351 OA
BRANCH  16  17
HETATM   17  C   UNK N   1      31.486  54.758  43.652  0.00  0.00     0.071 A 
HETATM   18  C   UNK N   1      32.465  55.094  44.595  0.00  0.00     0.038 A 
HETATM   19  C   UNK N   1      33.375  54.136  45.044  0.00  0.00     0.017 A 
HETATM   20  C   UNK N   1      33.301  52.823  44.565  0.00  0.00    -0.002 A 
HETATM   21  C   UNK N   1      32.299  52.465  43.637  0.00  0.00     0.092 A 
HETATM   22  C   UNK N   1      34.203  51.844  44.987  0.00  0.00     0.020 A 
HETATM   23  O   UNK N   1      32.219  51.216  43.185  0.00  0.00    -0.275 OA
HETATM   24  C   UNK N   1      31.399  53.432  43.181  0.00  0.00     0.075 A 
HETATM   25  C   UNK N   1      33.062  50.261  43.575  0.00  0.00     0.288 A 
HETATM   26  O   UNK N   1      32.943  49.134  43.133  0.00  0.00    -0.260 OA
HETATM   27  C   UNK N   1      34.085  50.550  44.486  0.00  0.00     0.083 A 
ENDBRANCH  16  17
ENDBRANCH  15  16
ENDBRANCH   1  15
BRANCH   2  28
HETATM   28  O   UNK N   1      31.465  56.075  40.531  0.00  0.00    -0.390 OA
HETATM   29  H   UNK N   1      32.052  55.310  40.306  0.00  0.00     0.210 HD
ENDBRANCH   2  28
BRANCH   7  30
HETATM   30  O   UNK N   1      24.052  58.773  40.249  0.00  0.00    -0.395 OA
HETATM   31  H   UNK N   1      23.818  58.656  39.290  0.00  0.00     0.210 HD
ENDBRANCH   7  30
TORSDOF 5
ENDMDL
MODEL 5
REMARK VINA RESULT:      -6.3     18.653     21.740
REMARK  5 active torsions:
REMARK  status: ('A' for Active; 'I' for Inactive)
REMARK    1  A    between atoms: C_8  and  O_10 
REMARK    2  A    between atoms: O_10  and  C_11 
REMARK    3  A    between atoms: C_11  and  C_12 
REMARK    4  A    between atoms: C_13  and  O_14 
REMARK    5  A    between atoms: C_20  and  O_21 
ROOT
HETATM    1  C   UNK N   1      31.142  44.454  59.668  0.00  0.00     0.052 C 
HETATM    2  C   UNK N   1      31.577  44.152  58.172  0.00  0.00     0.060 C 
HETATM    3  C   UNK N   1      31.729  45.486  57.408  0.00  0.00     0.038 C 
HETATM    4  C   UNK N   1      30.512  46.408  57.512  0.00  0.00     0.009 C 
HETATM    5  C   UNK N   1      30.225  46.758  58.997  0.00  0.00     0.004 C 
HETATM    6  C   UNK N   1      29.191  47.960  59.189  0.00  0.00    -0.017 C 
HETATM    7  C   UNK N   1      28.574  47.961  60.644  0.00  0.00     0.126 C 
HETATM    8  C   UNK N   1      29.584  47.407  61.648  0.00  0.00     0.033 C 
HETATM    9  C   UNK N   1      29.891  45.913  61.377  0.00  0.00     0.012 C 
HETATM   10  C   UNK N   1      29.934  45.480  59.856  0.00  0.00    -0.031 C 
HETATM   11  C   UNK N   1      28.554  44.845  59.488  0.00  0.00     0.016 C 
HETATM   12  C   UNK N   1      29.980  49.282  58.949  0.00  0.00     0.018 C 
HETATM   13  C   UNK N   1      28.024  47.947  58.168  0.00  0.00     0.018 C 
HETATM   14  C   UNK N   1      30.636  43.198  57.379  0.00  0.00     0.046 C 
ENDROOT
BRANCH   1  15
HETATM   15  C   UNK N   1      30.957  43.165  60.520  0.00  0.00     0.184 C 
BRANCH  15  16
HETATM   16  O   UNK N   1      32.180  42.663  60.912  0.00  0.00    -0.351 OA
BRANCH  16  17
HETATM   17  C   UNK N   1      33.059  43.324  61.708  0.00  0.00     0.071 A 
HETATM   18  C   UNK N   1      32.583  43.890  62.896  0.00  0.00     0.038 A 
HETATM   19  C   UNK N   1      33.433  44.630  63.720  0.00  0.00     0.017 A 
HETATM   20  C   UNK N   1      34.778  44.795  63.367  0.00  0.00    -0.002 A 
HETATM   21  C   UNK N   1      35.277  44.204  62.186  0.00  0.00     0.092 A 
HETATM   22  C   UNK N   1      35.651  45.539  64.163  0.00  0.00     0.020 A 
HETATM   23  O   UNK N   1      36.556  44.351  61.851  0.00  0.00    -0.275 OA
HETATM   24  C   UNK N   1      34.417  43.475  61.360  0.00  0.00     0.075 A 
HETATM   25  C   UNK N   1      37.412  45.049  62.595  0.00  0.00     0.288 A 
HETATM   26  O   UNK N   1      38.573  45.150  62.245  0.00  0.00    -0.260 OA
HETATM   27  C   UNK N   1      36.982  45.670  63.775  0.00  0.00     0.083 A 
ENDBRANCH  16  17
ENDBRANCH  15  16
ENDBRANCH   1  15
BRANCH   2  28
HETATM   28  O   UNK N   1      32.875  43.590  58.182  0.00  0.00    -0.390 OA
HETATM   29  H   UNK N   1      33.563  44.303  58.203  0.00  0.00     0.210 HD
ENDBRANCH   2  28
BRANCH   7  30
HETATM   30  O   UNK N   1      28.160  49.255  61.007  0.00  0.00    -0.395 OA
HETATM   31  H   UNK N   1      28.441  49.870  60.278  0.00  0.00     0.210 HD
ENDBRANCH   7  30
TORSDOF 5
ENDMDL
MODEL 6
REMARK VINA RESULT:      -6.2     16.372     20.259
REMARK  5 active torsions:
REMARK  status: ('A' for Active; 'I' for Inactive)
REMARK    1  A    between atoms: C_8  and  O_10 
REMARK    2  A    between atoms: O_10  and  C_11 
REMARK    3  A    between atoms: C_11  and  C_12 
REMARK    4  A    between atoms: C_13  and  O_14 
REMARK    5  A    between atoms: C_20  and  O_21 
ROOT
HETATM    1  C   UNK N   1      49.621  56.467  41.384  0.00  0.00     0.052 C 
HETATM    2  C   UNK N   1      50.605  55.324  40.893  0.00  0.00     0.060 C 
HETATM    3  C   UNK N   1      51.014  54.453  42.102  0.00  0.00     0.038 C 
HETATM    4  C   UNK N   1      51.555  55.250  43.291  0.00  0.00     0.009 C 
HETATM    5  C   UNK N   1      50.490  56.261  43.793  0.00  0.00     0.004 C 
HETATM    6  C   UNK N   1      50.828  56.903  45.216  0.00  0.00    -0.017 C 
HETATM    7  C   UNK N   1      50.010  58.234  45.456  0.00  0.00     0.126 C 
HETATM    8  C   UNK N   1      48.660  58.162  44.742  0.00  0.00     0.033 C 
HETATM    9  C   UNK N   1      48.835  58.106  43.204  0.00  0.00     0.012 C 
HETATM   10  C   UNK N   1      50.079  57.283  42.678  0.00  0.00    -0.031 C 
HETATM   11  C   UNK N   1      51.236  58.287  42.367  0.00  0.00     0.016 C 
HETATM   12  C   UNK N   1      50.444  55.845  46.294  0.00  0.00     0.018 C 
HETATM   13  C   UNK N   1      52.333  57.216  45.416  0.00  0.00     0.018 C 
HETATM   14  C   UNK N   1      51.878  55.810  40.142  0.00  0.00     0.046 C 
ENDROOT
BRANCH   1  15
HETATM   15  C   UNK N   1      49.155  57.406  40.233  0.00  0.00     0.184 C 
BRANCH  15  16
HETATM   16  O   UNK N   1      48.824  56.671  39.113  0.00  0.00    -0.351 OA
BRANCH  16  17
HETATM   17  C   UNK N   1      47.605  56.691  38.518  0.00  0.00     0.071 A 
HETATM   18  C   UNK N   1      47.358  55.785  37.481  0.00  0.00     0.038 A 
HETATM   19  C   UNK N   1      46.141  55.804  36.797  0.00  0.00     0.017 A 
HETATM   20  C   UNK N   1      45.151  56.725  37.159  0.00  0.00    -0.002 A 
HETATM   21  C   UNK N   1      45.377  57.625  38.223  0.00  0.00     0.092 A 
HETATM   22  C   UNK N   1      43.928  56.778  36.487  0.00  0.00     0.020 A 
HETATM   23  O   UNK N   1      44.436  58.495  38.577  0.00  0.00    -0.275 OA
HETATM   24  C   UNK N   1      46.603  57.608  38.896  0.00  0.00     0.075 A 
HETATM   25  C   UNK N   1      43.258  58.563  37.959  0.00  0.00     0.288 A 
HETATM   26  O   UNK N   1      42.430  59.377  38.324  0.00  0.00    -0.260 OA
HETATM   27  C   UNK N   1      42.971  57.706  36.889  0.00  0.00     0.083 A 
ENDBRANCH  16  17
ENDBRANCH  15  16
ENDBRANCH   1  15
BRANCH   2  28
HETATM   28  O   UNK N   1      49.892  54.448  40.041  0.00  0.00    -0.390 OA
HETATM   29  H   UNK N   1      50.428  53.636  39.850  0.00  0.00     0.210 HD
ENDBRANCH   2  28
BRANCH   7  30
HETATM   30  O   UNK N   1      49.841  58.471  46.832  0.00  0.00    -0.395 OA
HETATM   31  H   UNK N   1      50.381  59.273  47.062  0.00  0.00     0.210 HD
ENDBRANCH   7  30
TORSDOF 5
ENDMDL
MODEL 7
REMARK VINA RESULT:      -6.1     16.042     20.845
REMARK  5 active torsions:
REMARK  status: ('A' for Active; 'I' for Inactive)
REMARK    1  A    between atoms: C_8  and  O_10 
REMARK    2  A    between atoms: O_10  and  C_11 
REMARK    3  A    between atoms: C_11  and  C_12 
REMARK    4  A    between atoms: C_13  and  O_14 
REMARK    5  A    between atoms: C_20  and  O_21 
ROOT
HETATM    1  C   UNK N   1      29.177  44.217  59.721  0.00  0.00     0.052 C 
HETATM    2  C   UNK N   1      28.505  43.804  61.098  0.00  0.00     0.060 C 
HETATM    3  C   UNK N   1      29.609  43.593  62.159  0.00  0.00     0.038 C 
HETATM    4  C   UNK N   1      30.725  42.643  61.718  0.00  0.00     0.009 C 
HETATM    5  C   UNK N   1      31.416  43.178  60.435  0.00  0.00     0.004 C 
HETATM    6  C   UNK N   1      32.788  42.441  60.085  0.00  0.00    -0.017 C 
HETATM    7  C   UNK N   1      33.192  42.665  58.573  0.00  0.00     0.126 C 
HETATM    8  C   UNK N   1      32.693  44.025  58.087  0.00  0.00     0.033 C 
HETATM    9  C   UNK N   1      31.145  44.088  58.071  0.00  0.00     0.012 C 
HETATM   10  C   UNK N   1      30.409  43.321  59.243  0.00  0.00    -0.031 C 
HETATM   11  C   UNK N   1      29.954  41.926  58.706  0.00  0.00     0.016 C 
HETATM   12  C   UNK N   1      33.880  43.046  61.018  0.00  0.00     0.018 C 
HETATM   13  C   UNK N   1      32.764  40.916  60.359  0.00  0.00     0.018 C 
HETATM   14  C   UNK N   1      27.582  42.551  61.046  0.00  0.00     0.046 C 
ENDROOT
BRANCH   1  15
HETATM   15  C   UNK N   1      28.140  44.446  58.583  0.00  0.00     0.184 C 
BRANCH  15  16
HETATM   16  O   UNK N   1      27.417  45.598  58.811  0.00  0.00    -0.351 OA
BRANCH  16  17
HETATM   17  C   UNK N   1      27.661  46.787  58.205  0.00  0.00     0.071 A 
HETATM   18  C   UNK N   1      26.575  47.622  57.919  0.00  0.00     0.038 A 
HETATM   19  C   UNK N   1      26.767  48.829  57.244  0.00  0.00     0.017 A 
HETATM   20  C   UNK N   1      28.055  49.220  56.864  0.00  0.00    -0.002 A 
HETATM   21  C   UNK N   1      29.163  48.400  57.173  0.00  0.00     0.092 A 
HETATM   22  C   UNK N   1      28.279  50.415  56.177  0.00  0.00     0.020 A 
HETATM   23  O   UNK N   1      30.391  48.772  56.822  0.00  0.00    -0.275 OA
HETATM   24  C   UNK N   1      28.963  47.187  57.839  0.00  0.00     0.075 A 
HETATM   25  C   UNK N   1      30.634  49.909  56.173  0.00  0.00     0.288 A 
HETATM   26  O   UNK N   1      31.777  50.203  55.878  0.00  0.00    -0.260 OA
HETATM   27  C   UNK N   1      29.581  50.764  55.826  0.00  0.00     0.083 A 
ENDBRANCH  16  17
ENDBRANCH  15  16
ENDBRANCH   1  15
BRANCH   2  28
HETATM   28  O   UNK N   1      27.746  44.896  61.578  0.00  0.00    -0.390 OA
HETATM   29  H   UNK N   1      27.738  44.906  62.569  0.00  0.00     0.210 HD
ENDBRANCH   2  28
BRANCH   7  30
HETATM   30  O   UNK N   1      34.584  42.551  58.409  0.00  0.00    -0.395 OA
HETATM   31  H   UNK N   1      34.944  43.470  58.288  0.00  0.00     0.210 HD
ENDBRANCH   7  30
TORSDOF 5
ENDMDL
MODEL 8
REMARK VINA RESULT:      -5.9     15.732     18.968
REMARK  5 active torsions:
REMARK  status: ('A' for Active; 'I' for Inactive)
REMARK    1  A    between atoms: C_8  and  O_10 
REMARK    2  A    between atoms: O_10  and  C_11 
REMARK    3  A    between atoms: C_11  and  C_12 
REMARK    4  A    between atoms: C_13  and  O_14 
REMARK    5  A    between atoms: C_20  and  O_21 
ROOT
HETATM    1  C   UNK N   1      27.896  46.565  59.074  0.00  0.00     0.052 C 
HETATM    2  C   UNK N   1      26.391  46.885  59.458  0.00  0.00     0.060 C 
HETATM    3  C   UNK N   1      25.823  47.925  58.465  0.00  0.00     0.038 C 
HETATM    4  C   UNK N   1      26.690  49.176  58.308  0.00  0.00     0.009 C 
HETATM    5  C   UNK N   1      28.109  48.792  57.811  0.00  0.00     0.004 C 
HETATM    6  C   UNK N   1      28.976  50.035  57.309  0.00  0.00    -0.017 C 
HETATM    7  C   UNK N   1      30.518  49.686  57.276  0.00  0.00     0.126 C 
HETATM    8  C   UNK N   1      30.718  48.202  56.972  0.00  0.00     0.033 C 
HETATM    9  C   UNK N   1      30.160  47.310  58.108  0.00  0.00     0.012 C 
HETATM   10  C   UNK N   1      28.838  47.825  58.807  0.00  0.00    -0.031 C 
HETATM   11  C   UNK N   1      29.237  48.559  60.129  0.00  0.00     0.016 C 
HETATM   12  C   UNK N   1      28.483  50.382  55.872  0.00  0.00     0.018 C 
HETATM   13  C   UNK N   1      28.787  51.313  58.165  0.00  0.00     0.018 C 
HETATM   14  C   UNK N   1      26.159  47.375  60.918  0.00  0.00     0.046 C 
ENDROOT
BRANCH   1  15
HETATM   15  C   UNK N   1      28.559  45.527  60.026  0.00  0.00     0.184 C 
BRANCH  15  16
HETATM   16  O   UNK N   1      28.354  44.244  59.563  0.00  0.00    -0.351 OA
BRANCH  16  17
HETATM   17  C   UNK N   1      29.030  43.688  58.526  0.00  0.00     0.071 A 
HETATM   18  C   UNK N   1      30.417  43.542  58.638  0.00  0.00     0.038 A 
HETATM   19  C   UNK N   1      31.165  43.031  57.577  0.00  0.00     0.017 A 
HETATM   20  C   UNK N   1      30.525  42.643  56.394  0.00  0.00    -0.002 A 
HETATM   21  C   UNK N   1      29.123  42.758  56.279  0.00  0.00     0.092 A 
HETATM   22  C   UNK N   1      31.246  42.139  55.310  0.00  0.00     0.020 A 
HETATM   23  O   UNK N   1      28.508  42.382  55.160  0.00  0.00    -0.275 OA
HETATM   24  C   UNK N   1      28.380  43.282  57.342  0.00  0.00     0.075 A 
HETATM   25  C   UNK N   1      29.170  41.892  54.113  0.00  0.00     0.288 A 
HETATM   26  O   UNK N   1      28.559  41.560  53.114  0.00  0.00    -0.260 OA
HETATM   27  C   UNK N   1      30.564  41.760  54.156  0.00  0.00     0.083 A 
ENDBRANCH  16  17
ENDBRANCH  15  16
ENDBRANCH   1  15
BRANCH   2  28
HETATM   28  O   UNK N   1      25.612  45.723  59.250  0.00  0.00    -0.390 OA
HETATM   29  H   UNK N   1      24.832  45.925  58.673  0.00  0.00     0.210 HD
ENDBRANCH   2  28
BRANCH   7  30
HETATM   30  O   UNK N   1      31.189  50.490  56.337  0.00  0.00    -0.395 OA
HETATM   31  H   UNK N   1      31.794  49.895  55.819  0.00  0.00     0.210 HD
ENDBRANCH   7  30
TORSDOF 5
ENDMDL
MODEL 9
REMARK VINA RESULT:      -5.9     22.960     24.568
REMARK  5 active torsions:
REMARK  status: ('A' for Active; 'I' for Inactive)
REMARK    1  A    between atoms: C_8  and  O_10 
REMARK    2  A    between atoms: O_10  and  C_11 
REMARK    3  A    between atoms: C_11  and  C_12 
REMARK    4  A    between atoms: C_13  and  O_14 
REMARK    5  A    between atoms: C_20  and  O_21 
ROOT
HETATM    1  C   UNK N   1      33.397  46.373  63.352  0.00  0.00     0.052 C 
HETATM    2  C   UNK N   1      32.973  47.732  64.051  0.00  0.00     0.060 C 
HETATM    3  C   UNK N   1      34.021  48.820  63.725  0.00  0.00     0.038 C 
HETATM    4  C   UNK N   1      35.463  48.408  64.025  0.00  0.00     0.009 C 
HETATM    5  C   UNK N   1      35.844  47.143  63.210  0.00  0.00     0.004 C 
HETATM    6  C   UNK N   1      37.409  46.827  63.202  0.00  0.00    -0.017 C 
HETATM    7  C   UNK N   1      37.692  45.326  62.795  0.00  0.00     0.126 C 
HETATM    8  C   UNK N   1      36.616  44.828  61.830  0.00  0.00     0.033 C 
HETATM    9  C   UNK N   1      35.226  44.773  62.511  0.00  0.00     0.012 C 
HETATM   10  C   UNK N   1      34.917  45.926  63.549  0.00  0.00    -0.031 C 
HETATM   11  C   UNK N   1      35.193  45.377  64.986  0.00  0.00     0.016 C 
HETATM   12  C   UNK N   1      38.061  47.788  62.162  0.00  0.00     0.018 C 
HETATM   13  C   UNK N   1      38.107  47.100  64.559  0.00  0.00     0.018 C 
HETATM   14  C   UNK N   1      32.758  47.658  65.591  0.00  0.00     0.046 C 
ENDROOT
BRANCH   1  15
HETATM   15  C   UNK N   1      32.402  45.209  63.630  0.00  0.00     0.184 C 
BRANCH  15  16
HETATM   16  O   UNK N   1      31.732  44.859  62.476  0.00  0.00    -0.351 OA
BRANCH  16  17
HETATM   17  C   UNK N   1      31.720  43.609  61.948  0.00  0.00     0.071 A 
HETATM   18  C   UNK N   1      32.604  43.321  60.902  0.00  0.00     0.038 A 
HETATM   19  C   UNK N   1      32.589  42.069  60.285  0.00  0.00     0.017 A 
HETATM   20  C   UNK N   1      31.697  41.084  60.725  0.00  0.00    -0.002 A 
HETATM   21  C   UNK N   1      30.821  41.353  61.799  0.00  0.00     0.092 A 
HETATM   22  C   UNK N   1      31.650  39.825  60.122  0.00  0.00     0.020 A 
HETATM   23  O   UNK N   1      29.977  40.417  62.226  0.00  0.00    -0.275 OA
HETATM   24  C   UNK N   1      30.832  42.613  62.404  0.00  0.00     0.075 A 
HETATM   25  C   UNK N   1      29.915  39.206  61.674  0.00  0.00     0.288 A 
HETATM   26  O   UNK N   1      29.127  38.386  62.106  0.00  0.00    -0.260 OA
HETATM   27  C   UNK N   1      30.750  38.876  60.599  0.00  0.00     0.083 A 
ENDBRANCH  16  17
ENDBRANCH  15  16
ENDBRANCH   1  15
BRANCH   2  28
HETATM   28  O   UNK N   1      31.775  48.193  63.456  0.00  0.00    -0.390 OA
HETATM   29  H   UNK N   1      31.508  49.066  63.842  0.00  0.00     0.210 HD
ENDBRANCH   2  28
BRANCH   7  30
HETATM   30  O   UNK N   1      38.974  45.197  62.233  0.00  0.00    -0.395 OA
HETATM   31  H   UNK N   1      39.043  44.277  61.863  0.00  0.00     0.210 HD
ENDBRANCH   7  30
TORSDOF 5
ENDMDL
