MODEL 1
REMARK VINA RESULT:      -5.8      0.000      0.000
REMARK  10 active torsions:
REMARK  status: ('A' for Active; 'I' for Inactive)
REMARK    1  A    between atoms: C_6  and  O_7 
REMARK    2  A    between atoms: C_6  and  C_16 
REMARK    3  A    between atoms: C_9  and  C_10 
REMARK    4  A    between atoms: C_10  and  C_11 
REMARK    5  A    between atoms: C_11  and  O_12 
REMARK    6  A    between atoms: C_16  and  C_17 
REMARK    7  A    between atoms: C_18  and  C_19 
REMARK    8  A    between atoms: C_19  and  C_20 
REMARK    9  A    between atoms: C_21  and  O_22 
REMARK   10  A    between atoms: C_26  and  O_28 
ROOT
HETATM    1  O   UNK N   1      24.482  55.380  40.879  0.00  0.00    -0.297 OA
HETATM    2  C   UNK N   1      25.695  55.238  40.958  0.00  0.00     0.143 C 
HETATM    3  C   UNK N   1      26.533  56.203  41.837  0.00  0.00     0.025 C 
HETATM    4  C   UNK N   1      27.718  56.816  40.996  0.00  0.00    -0.027 C 
HETATM    5  C   UNK N   1      28.348  55.795  39.996  0.00  0.00     0.049 C 
HETATM    6  C   UNK N   1      27.337  55.007  39.118  0.00  0.00     0.072 C 
HETATM    7  C   UNK N   1      26.355  54.214  40.048  0.00  0.00     0.093 C 
HETATM    8  C   UNK N   1      27.096  58.082  40.307  0.00  0.00     0.010 C 
HETATM    9  C   UNK N   1      25.665  58.194  40.824  0.00  0.00     0.002 C 
HETATM   10  C   UNK N   1      25.712  57.472  42.165  0.00  0.00     0.018 C 
HETATM   11  C   UNK N   1      28.886  57.320  41.897  0.00  0.00     0.016 C 
HETATM   12  C   UNK N   1      26.940  55.503  43.154  0.00  0.00     0.024 C 
ENDROOT
BRANCH   6  13
HETATM   13  O   UNK N   1      26.567  55.923  38.375  0.00  0.00    -0.389 OA
HETATM   14  H   UNK N   1      27.106  56.747  38.243  0.00  0.00     0.210 HD
ENDBRANCH   6  13
BRANCH   6  15
HETATM   15  C   UNK N   1      28.125  54.077  38.132  0.00  0.00     0.072 C 
BRANCH  15  16
HETATM   16  C   UNK N   1      29.647  54.261  38.164  0.00  0.00    -0.084 C 
HETATM   17  C   UNK N   1      30.489  53.425  38.826  0.00  0.00    -0.020 C 
HETATM   18  C   UNK N   1      30.258  55.412  37.392  0.00  0.00     0.043 C 
BRANCH  17  19
HETATM   19  C   UNK N   1      30.089  52.196  39.614  0.00  0.00     0.068 C 
BRANCH  19  20
HETATM   20  C   UNK N   1      30.793  52.186  40.953  0.00  0.00    -0.018 A 
HETATM   21  C   UNK N   1      31.479  51.041  41.433  0.00  0.00     0.078 A 
HETATM   22  C   UNK N   1      32.113  51.079  42.687  0.00  0.00    -0.026 A 
HETATM   23  C   UNK N   1      32.054  52.245  43.466  0.00  0.00     0.046 A 
HETATM   24  C   UNK N   1      32.855  49.873  43.194  0.00  0.00     0.051 C 
HETATM   25  C   UNK N   1      31.374  53.376  43.009  0.00  0.00     0.069 A 
HETATM   26  C   UNK N   1      30.750  53.344  41.748  0.00  0.00     0.047 A 
BRANCH  21  27
HETATM   27  O   UNK N   1      31.541  49.896  40.714  0.00  0.00    -0.360 OA
HETATM   28  H   UNK N   1      31.401  49.853  39.763  0.00  0.00     0.217 HD
ENDBRANCH  21  27
BRANCH  25  29
HETATM   29  O   UNK N   1      31.339  54.477  43.807  0.00  0.00    -0.356 OA
HETATM   30  C   UNK N   1      31.329  54.456  45.188  0.00  0.00     0.210 C 
ENDBRANCH  25  29
ENDBRANCH  19  20
ENDBRANCH  17  19
ENDBRANCH  15  16
ENDBRANCH   6  15
BRANCH   7  31
HETATM   31  C   UNK N   1      26.961  52.991  40.809  0.00  0.00     0.052 C 
BRANCH  31  32
HETATM   32  C   UNK N   1      26.230  51.625  40.598  0.00  0.00     0.051 C 
HETATM   33  C   UNK N   1      25.334  51.652  39.333  0.00  0.00     0.045 C 
HETATM   34  C   UNK N   1      27.283  50.522  40.405  0.00  0.00     0.045 C 
BRANCH  32  35
HETATM   35  O   UNK N   1      25.483  51.272  41.739  0.00  0.00    -0.391 OA
HETATM   36  H   UNK N   1      24.554  51.606  41.646  0.00  0.00     0.210 HD
ENDBRANCH  32  35
ENDBRANCH  31  32
ENDBRANCH   7  31
TORSDOF 10
ENDMDL
MODEL 2
REMARK VINA RESULT:      -5.6      1.667      4.046
REMARK  10 active torsions:
REMARK  status: ('A' for Active; 'I' for Inactive)
REMARK    1  A    between atoms: C_6  and  O_7 
REMARK    2  A    between atoms: C_6  and  C_16 
REMARK    3  A    between atoms: C_9  and  C_10 
REMARK    4  A    between atoms: C_10  and  C_11 
REMARK    5  A    between atoms: C_11  and  O_12 
REMARK    6  A    between atoms: C_16  and  C_17 
REMARK    7  A    between atoms: C_18  and  C_19 
REMARK    8  A    between atoms: C_19  and  C_20 
REMARK    9  A    between atoms: C_21  and  O_22 
REMARK   10  A    between atoms: C_26  and  O_28 
ROOT
HETATM    1  O   UNK N   1      28.743  57.167  40.930  0.00  0.00    -0.297 OA
HETATM    2  C   UNK N   1      27.910  56.814  40.106  0.00  0.00     0.143 C 
HETATM    3  C   UNK N   1      26.567  57.581  39.985  0.00  0.00     0.025 C 
HETATM    4  C   UNK N   1      25.355  56.575  40.083  0.00  0.00    -0.027 C 
HETATM    5  C   UNK N   1      25.636  55.211  39.376  0.00  0.00     0.049 C 
HETATM    6  C   UNK N   1      26.996  54.544  39.723  0.00  0.00     0.072 C 
HETATM    7  C   UNK N   1      28.161  55.522  39.344  0.00  0.00     0.093 C 
HETATM    8  C   UNK N   1      25.074  56.449  41.622  0.00  0.00     0.010 C 
HETATM    9  C   UNK N   1      26.034  57.411  42.316  0.00  0.00     0.002 C 
HETATM   10  C   UNK N   1      26.336  58.450  41.242  0.00  0.00     0.018 C 
HETATM   11  C   UNK N   1      24.059  57.144  39.431  0.00  0.00     0.016 C 
HETATM   12  C   UNK N   1      26.584  58.486  38.732  0.00  0.00     0.024 C 
ENDROOT
BRANCH   6  13
HETATM   13  O   UNK N   1      27.058  54.332  41.114  0.00  0.00    -0.389 OA
HETATM   14  H   UNK N   1      26.339  54.868  41.543  0.00  0.00     0.210 HD
ENDBRANCH   6  13
BRANCH   6  15
HETATM   15  C   UNK N   1      27.097  53.164  38.987  0.00  0.00     0.072 C 
BRANCH  15  16
HETATM   16  C   UNK N   1      27.295  51.960  39.917  0.00  0.00    -0.084 C 
HETATM   17  C   UNK N   1      28.511  51.553  40.365  0.00  0.00    -0.020 C 
HETATM   18  C   UNK N   1      26.076  51.200  40.396  0.00  0.00     0.043 C 
BRANCH  17  19
HETATM   19  C   UNK N   1      29.842  52.199  40.047  0.00  0.00     0.068 C 
BRANCH  19  20
HETATM   20  C   UNK N   1      30.687  52.290  41.299  0.00  0.00    -0.018 A 
HETATM   21  C   UNK N   1      30.647  53.424  42.152  0.00  0.00     0.078 A 
HETATM   22  C   UNK N   1      31.455  53.464  43.301  0.00  0.00    -0.026 A 
HETATM   23  C   UNK N   1      32.309  52.390  43.595  0.00  0.00     0.046 A 
HETATM   24  C   UNK N   1      31.404  54.655  44.218  0.00  0.00     0.051 C 
HETATM   25  C   UNK N   1      32.365  51.273  42.759  0.00  0.00     0.069 A 
HETATM   26  C   UNK N   1      31.547  51.224  41.614  0.00  0.00     0.047 A 
BRANCH  21  27
HETATM   27  O   UNK N   1      29.845  54.483  41.890  0.00  0.00    -0.360 OA
HETATM   28  H   UNK N   1      29.199  54.502  41.177  0.00  0.00     0.217 HD
ENDBRANCH  21  27
BRANCH  25  29
HETATM   29  O   UNK N   1      33.217  50.263  43.083  0.00  0.00    -0.356 OA
HETATM   30  C   UNK N   1      34.530  50.428  43.474  0.00  0.00     0.210 C 
ENDBRANCH  25  29
ENDBRANCH  19  20
ENDBRANCH  17  19
ENDBRANCH  15  16
ENDBRANCH   6  15
BRANCH   7  31
HETATM   31  C   UNK N   1      28.420  55.729  37.818  0.00  0.00     0.052 C 
BRANCH  31  32
HETATM   32  C   UNK N   1      29.805  55.235  37.287  0.00  0.00     0.051 C 
HETATM   33  C   UNK N   1      30.793  54.963  38.451  0.00  0.00     0.045 C 
HETATM   34  C   UNK N   1      29.603  53.915  36.525  0.00  0.00     0.045 C 
BRANCH  32  35
HETATM   35  O   UNK N   1      30.349  56.151  36.366  0.00  0.00    -0.391 OA
HETATM   36  H   UNK N   1      29.681  56.855  36.163  0.00  0.00     0.210 HD
ENDBRANCH  32  35
ENDBRANCH  31  32
ENDBRANCH   7  31
TORSDOF 10
ENDMDL
MODEL 3
REMARK VINA RESULT:      -5.1     15.914     20.173
REMARK  10 active torsions:
REMARK  status: ('A' for Active; 'I' for Inactive)
REMARK    1  A    between atoms: C_6  and  O_7 
REMARK    2  A    between atoms: C_6  and  C_16 
REMARK    3  A    between atoms: C_9  and  C_10 
REMARK    4  A    between atoms: C_10  and  C_11 
REMARK    5  A    between atoms: C_11  and  O_12 
REMARK    6  A    between atoms: C_16  and  C_17 
REMARK    7  A    between atoms: C_18  and  C_19 
REMARK    8  A    between atoms: C_19  and  C_20 
REMARK    9  A    between atoms: C_21  and  O_22 
REMARK   10  A    between atoms: C_26  and  O_28 
ROOT
HETATM    1  O   UNK N   1      31.270  42.269  55.992  0.00  0.00    -0.297 OA
HETATM    2  C   UNK N   1      30.710  42.260  57.080  0.00  0.00     0.143 C 
HETATM    3  C   UNK N   1      29.373  41.495  57.258  0.00  0.00     0.025 C 
HETATM    4  C   UNK N   1      28.280  42.447  57.883  0.00  0.00    -0.027 C 
HETATM    5  C   UNK N   1      28.863  43.423  58.953  0.00  0.00     0.049 C 
HETATM    6  C   UNK N   1      30.150  44.186  58.533  0.00  0.00     0.072 C 
HETATM    7  C   UNK N   1      31.271  43.150  58.179  0.00  0.00     0.093 C 
HETATM    8  C   UNK N   1      27.634  43.166  56.647  0.00  0.00     0.010 C 
HETATM    9  C   UNK N   1      28.288  42.565  55.407  0.00  0.00     0.002 C 
HETATM   10  C   UNK N   1      28.748  41.190  55.877  0.00  0.00     0.018 C 
HETATM   11  C   UNK N   1      27.141  41.653  58.592  0.00  0.00     0.016 C 
HETATM   12  C   UNK N   1      29.616  40.170  58.014  0.00  0.00     0.024 C 
ENDROOT
BRANCH   6  13
HETATM   13  O   UNK N   1      29.879  44.930  57.368  0.00  0.00    -0.389 OA
HETATM   14  H   UNK N   1      29.462  44.323  56.701  0.00  0.00     0.210 HD
ENDBRANCH   6  13
BRANCH   6  15
HETATM   15  C   UNK N   1      30.569  45.165  59.684  0.00  0.00     0.072 C 
BRANCH  15  16
HETATM   16  C   UNK N   1      29.526  46.241  60.014  0.00  0.00    -0.084 C 
HETATM   17  C   UNK N   1      29.454  47.435  59.369  0.00  0.00    -0.020 C 
HETATM   18  C   UNK N   1      28.498  45.955  61.087  0.00  0.00     0.043 C 
BRANCH  17  19
HETATM   19  C   UNK N   1      30.350  47.897  58.241  0.00  0.00     0.068 C 
BRANCH  19  20
HETATM   20  C   UNK N   1      29.634  48.931  57.400  0.00  0.00    -0.018 A 
HETATM   21  C   UNK N   1      30.221  49.488  56.234  0.00  0.00     0.078 A 
HETATM   22  C   UNK N   1      29.518  50.450  55.488  0.00  0.00    -0.026 A 
HETATM   23  C   UNK N   1      28.245  50.868  55.906  0.00  0.00     0.046 A 
HETATM   24  C   UNK N   1      30.128  51.032  54.242  0.00  0.00     0.051 C 
HETATM   25  C   UNK N   1      27.661  50.334  57.057  0.00  0.00     0.069 A 
HETATM   26  C   UNK N   1      28.357  49.361  57.798  0.00  0.00     0.047 A 
BRANCH  21  27
HETATM   27  O   UNK N   1      31.453  49.119  55.812  0.00  0.00    -0.360 OA
HETATM   28  H   UNK N   1      32.215  49.035  56.393  0.00  0.00     0.217 HD
ENDBRANCH  21  27
BRANCH  25  29
HETATM   29  O   UNK N   1      26.429  50.780  57.424  0.00  0.00    -0.356 OA
HETATM   30  C   UNK N   1      25.323  50.826  56.598  0.00  0.00     0.210 C 
ENDBRANCH  25  29
ENDBRANCH  19  20
ENDBRANCH  17  19
ENDBRANCH  15  16
ENDBRANCH   6  15
BRANCH   7  31
HETATM   31  C   UNK N   1      31.885  42.360  59.379  0.00  0.00     0.052 C 
BRANCH  31  32
HETATM   32  C   UNK N   1      33.432  42.496  59.567  0.00  0.00     0.051 C 
HETATM   33  C   UNK N   1      33.779  43.199  60.904  0.00  0.00     0.045 C 
HETATM   34  C   UNK N   1      34.054  41.091  59.600  0.00  0.00     0.045 C 
BRANCH  32  35
HETATM   35  O   UNK N   1      34.015  43.168  58.475  0.00  0.00    -0.391 OA
HETATM   36  H   UNK N   1      34.986  43.287  58.637  0.00  0.00     0.210 HD
ENDBRANCH  32  35
ENDBRANCH  31  32
ENDBRANCH   7  31
TORSDOF 10
ENDMDL
MODEL 4
REMARK VINA RESULT:      -5.1      2.076      4.028
REMARK  10 active torsions:
REMARK  status: ('A' for Active; 'I' for Inactive)
REMARK    1  A    between atoms: C_6  and  O_7 
REMARK    2  A    between atoms: C_6  and  C_16 
REMARK    3  A    between atoms: C_9  and  C_10 
REMARK    4  A    between atoms: C_10  and  C_11 
REMARK    5  A    between atoms: C_11  and  O_12 
REMARK    6  A    between atoms: C_16  and  C_17 
REMARK    7  A    between atoms: C_18  and  C_19 
REMARK    8  A    between atoms: C_19  and  C_20 
REMARK    9  A    between atoms: C_21  and  O_22 
REMARK   10  A    between atoms: C_26  and  O_28 
ROOT
HETATM    1  O   UNK N   1      26.650  55.100  42.897  0.00  0.00    -0.297 OA
HETATM    2  C   UNK N   1      27.250  55.893  42.183  0.00  0.00     0.143 C 
HETATM    3  C   UNK N   1      26.549  57.193  41.710  0.00  0.00     0.025 C 
HETATM    4  C   UNK N   1      26.649  57.325  40.141  0.00  0.00    -0.027 C 
HETATM    5  C   UNK N   1      28.015  56.828  39.573  0.00  0.00     0.049 C 
HETATM    6  C   UNK N   1      28.489  55.440  40.087  0.00  0.00     0.072 C 
HETATM    7  C   UNK N   1      28.614  55.484  41.649  0.00  0.00     0.093 C 
HETATM    8  C   UNK N   1      25.407  56.531  39.601  0.00  0.00     0.010 C 
HETATM    9  C   UNK N   1      24.626  56.067  40.827  0.00  0.00     0.002 C 
HETATM   10  C   UNK N   1      25.019  57.072  41.903  0.00  0.00     0.018 C 
HETATM   11  C   UNK N   1      26.488  58.799  39.660  0.00  0.00     0.016 C 
HETATM   12  C   UNK N   1      27.073  58.403  42.517  0.00  0.00     0.024 C 
ENDROOT
BRANCH   6  13
HETATM   13  O   UNK N   1      27.511  54.477  39.769  0.00  0.00    -0.389 OA
HETATM   14  H   UNK N   1      27.374  54.487  38.785  0.00  0.00     0.210 HD
ENDBRANCH   6  13
BRANCH   6  15
HETATM   15  C   UNK N   1      29.836  55.059  39.380  0.00  0.00     0.072 C 
BRANCH  15  16
HETATM   16  C   UNK N   1      29.853  53.657  38.760  0.00  0.00    -0.084 C 
HETATM   17  C   UNK N   1      30.244  52.544  39.437  0.00  0.00    -0.020 C 
HETATM   18  C   UNK N   1      29.381  53.484  37.332  0.00  0.00     0.043 C 
BRANCH  17  19
HETATM   19  C   UNK N   1      30.703  52.491  40.877  0.00  0.00     0.068 C 
BRANCH  19  20
HETATM   20  C   UNK N   1      31.045  51.067  41.261  0.00  0.00    -0.018 A 
HETATM   21  C   UNK N   1      32.011  50.769  42.256  0.00  0.00     0.078 A 
HETATM   22  C   UNK N   1      32.297  49.430  42.573  0.00  0.00    -0.026 A 
HETATM   23  C   UNK N   1      31.639  48.393  41.896  0.00  0.00     0.046 A 
HETATM   24  C   UNK N   1      33.308  49.107  43.639  0.00  0.00     0.051 C 
HETATM   25  C   UNK N   1      30.692  48.674  40.908  0.00  0.00     0.069 A 
HETATM   26  C   UNK N   1      30.394  50.013  40.597  0.00  0.00     0.047 A 
BRANCH  21  27
HETATM   27  O   UNK N   1      32.675  51.745  42.918  0.00  0.00    -0.360 OA
HETATM   28  H   UNK N   1      32.266  52.328  43.564  0.00  0.00     0.217 HD
ENDBRANCH  21  27
BRANCH  25  29
HETATM   29  O   UNK N   1      30.089  47.631  40.274  0.00  0.00    -0.356 OA
HETATM   30  C   UNK N   1      30.742  46.675  39.522  0.00  0.00     0.210 C 
ENDBRANCH  25  29
ENDBRANCH  19  20
ENDBRANCH  17  19
ENDBRANCH  15  16
ENDBRANCH   6  15
BRANCH   7  31
HETATM   31  C   UNK N   1      29.796  56.329  42.223  0.00  0.00     0.052 C 
BRANCH  31  32
HETATM   32  C   UNK N   1      30.880  55.532  43.022  0.00  0.00     0.051 C 
HETATM   33  C   UNK N   1      30.313  54.195  43.565  0.00  0.00     0.045 C 
HETATM   34  C   UNK N   1      32.047  55.199  42.079  0.00  0.00     0.045 C 
BRANCH  32  35
HETATM   35  O   UNK N   1      31.416  56.314  44.063  0.00  0.00    -0.391 OA
HETATM   36  H   UNK N   1      32.061  56.969  43.690  0.00  0.00     0.210 HD
ENDBRANCH  32  35
ENDBRANCH  31  32
ENDBRANCH   7  31
TORSDOF 10
ENDMDL
MODEL 5
REMARK VINA RESULT:      -5.1     17.405     21.249
REMARK  10 active torsions:
REMARK  status: ('A' for Active; 'I' for Inactive)
REMARK    1  A    between atoms: C_6  and  O_7 
REMARK    2  A    between atoms: C_6  and  C_16 
REMARK    3  A    between atoms: C_9  and  C_10 
REMARK    4  A    between atoms: C_10  and  C_11 
REMARK    5  A    between atoms: C_11  and  O_12 
REMARK    6  A    between atoms: C_16  and  C_17 
REMARK    7  A    between atoms: C_18  and  C_19 
REMARK    8  A    between atoms: C_19  and  C_20 
REMARK    9  A    between atoms: C_21  and  O_22 
REMARK   10  A    between atoms: C_26  and  O_28 
ROOT
HETATM    1  O   UNK N   1      26.057  38.016  55.382  0.00  0.00    -0.297 OA
HETATM    2  C   UNK N   1      27.129  38.208  54.823  0.00  0.00     0.143 C 
HETATM    3  C   UNK N   1      28.156  37.052  54.698  0.00  0.00     0.025 C 
HETATM    4  C   UNK N   1      29.561  37.510  55.251  0.00  0.00    -0.027 C 
HETATM    5  C   UNK N   1      29.893  38.998  54.915  0.00  0.00     0.049 C 
HETATM    6  C   UNK N   1      28.767  40.022  55.224  0.00  0.00     0.072 C 
HETATM    7  C   UNK N   1      27.480  39.632  54.419  0.00  0.00     0.093 C 
HETATM    8  C   UNK N   1      29.495  37.204  56.789  0.00  0.00     0.010 C 
HETATM    9  C   UNK N   1      28.148  36.531  57.037  0.00  0.00     0.002 C 
HETATM   10  C   UNK N   1      27.801  35.917  55.686  0.00  0.00     0.018 C 
HETATM   11  C   UNK N   1      30.731  36.660  54.670  0.00  0.00     0.016 C 
HETATM   12  C   UNK N   1      28.155  36.496  53.256  0.00  0.00     0.024 C 
ENDROOT
BRANCH   6  13
HETATM   13  O   UNK N   1      28.446  39.949  56.594  0.00  0.00    -0.389 OA
HETATM   14  H   UNK N   1      28.045  39.057  56.771  0.00  0.00     0.210 HD
ENDBRANCH   6  13
BRANCH   6  15
HETATM   15  C   UNK N   1      29.277  41.467  54.891  0.00  0.00     0.072 C 
BRANCH  15  16
HETATM   16  C   UNK N   1      28.786  42.552  55.858  0.00  0.00    -0.084 C 
HETATM   17  C   UNK N   1      29.606  43.217  56.715  0.00  0.00    -0.020 C 
HETATM   18  C   UNK N   1      27.321  42.935  55.843  0.00  0.00     0.043 C 
BRANCH  17  19
HETATM   19  C   UNK N   1      31.099  43.022  56.854  0.00  0.00     0.068 C 
BRANCH  19  20
HETATM   20  C   UNK N   1      31.439  42.601  58.267  0.00  0.00    -0.018 A 
HETATM   21  C   UNK N   1      32.639  43.008  58.905  0.00  0.00     0.078 A 
HETATM   22  C   UNK N   1      32.912  42.587  60.218  0.00  0.00    -0.026 A 
HETATM   23  C   UNK N   1      32.004  41.753  60.889  0.00  0.00     0.046 A 
HETATM   24  C   UNK N   1      34.175  43.029  60.905  0.00  0.00     0.051 C 
HETATM   25  C   UNK N   1      30.824  41.338  60.269  0.00  0.00     0.069 A 
HETATM   26  C   UNK N   1      30.542  41.769  58.959  0.00  0.00     0.047 A 
BRANCH  21  27
HETATM   27  O   UNK N   1      33.543  43.800  58.280  0.00  0.00    -0.360 OA
HETATM   28  H   UNK N   1      34.377  43.481  57.923  0.00  0.00     0.217 HD
ENDBRANCH  21  27
BRANCH  25  29
HETATM   29  O   UNK N   1      29.982  40.522  60.960  0.00  0.00    -0.356 OA
HETATM   30  C   UNK N   1      30.322  39.290  61.480  0.00  0.00     0.210 C 
ENDBRANCH  25  29
ENDBRANCH  19  20
ENDBRANCH  17  19
ENDBRANCH  15  16
ENDBRANCH   6  15
BRANCH   7  31
HETATM   31  C   UNK N   1      27.538  39.854  52.874  0.00  0.00     0.052 C 
BRANCH  31  32
HETATM   32  C   UNK N   1      26.465  40.826  52.282  0.00  0.00     0.051 C 
HETATM   33  C   UNK N   1      25.315  41.080  53.291  0.00  0.00     0.045 C 
HETATM   34  C   UNK N   1      27.131  42.178  51.980  0.00  0.00     0.045 C 
BRANCH  32  35
HETATM   35  O   UNK N   1      25.966  40.341  51.058  0.00  0.00    -0.391 OA
HETATM   36  H   UNK N   1      25.552  41.086  50.549  0.00  0.00     0.210 HD
ENDBRANCH  32  35
ENDBRANCH  31  32
ENDBRANCH   7  31
TORSDOF 10
ENDMDL
MODEL 6
REMARK VINA RESULT:      -5.0      1.490      3.590
REMARK  10 active torsions:
REMARK  status: ('A' for Active; 'I' for Inactive)
REMARK    1  A    between atoms: C_6  and  O_7 
REMARK    2  A    between atoms: C_6  and  C_16 
REMARK    3  A    between atoms: C_9  and  C_10 
REMARK    4  A    between atoms: C_10  and  C_11 
REMARK    5  A    between atoms: C_11  and  O_12 
REMARK    6  A    between atoms: C_16  and  C_17 
REMARK    7  A    between atoms: C_18  and  C_19 
REMARK    8  A    between atoms: C_19  and  C_20 
REMARK    9  A    between atoms: C_21  and  O_22 
REMARK   10  A    between atoms: C_26  and  O_28 
ROOT
HETATM    1  O   UNK N   1      29.021  56.299  40.954  0.00  0.00    -0.297 OA
HETATM    2  C   UNK N   1      28.090  56.020  40.209  0.00  0.00     0.143 C 
HETATM    3  C   UNK N   1      26.863  56.963  40.118  0.00  0.00     0.025 C 
HETATM    4  C   UNK N   1      25.532  56.150  40.360  0.00  0.00    -0.027 C 
HETATM    5  C   UNK N   1      25.569  54.721  39.734  0.00  0.00     0.049 C 
HETATM    6  C   UNK N   1      26.843  53.887  40.042  0.00  0.00     0.072 C 
HETATM    7  C   UNK N   1      28.105  54.661  39.526  0.00  0.00     0.093 C 
HETATM    8  C   UNK N   1      25.345  56.159  41.918  0.00  0.00     0.010 C 
HETATM    9  C   UNK N   1      26.477  57.013  42.483  0.00  0.00     0.002 C 
HETATM   10  C   UNK N   1      26.845  57.931  41.323  0.00  0.00     0.018 C 
HETATM   11  C   UNK N   1      24.286  56.860  39.750  0.00  0.00     0.016 C 
HETATM   12  C   UNK N   1      26.918  57.779  38.806  0.00  0.00     0.024 C 
ENDROOT
BRANCH   6  13
HETATM   13  O   UNK N   1      26.974  53.752  41.439  0.00  0.00    -0.389 OA
HETATM   14  H   UNK N   1      27.799  53.232  41.625  0.00  0.00     0.210 HD
ENDBRANCH   6  13
BRANCH   6  15
HETATM   15  C   UNK N   1      26.699  52.464  39.399  0.00  0.00     0.072 C 
BRANCH  15  16
HETATM   16  C   UNK N   1      26.983  51.301  40.358  0.00  0.00    -0.084 C 
HETATM   17  C   UNK N   1      28.235  50.858  40.647  0.00  0.00    -0.020 C 
HETATM   18  C   UNK N   1      25.818  50.628  41.053  0.00  0.00     0.043 C 
BRANCH  17  19
HETATM   19  C   UNK N   1      29.529  51.420  40.101  0.00  0.00     0.068 C 
BRANCH  19  20
HETATM   20  C   UNK N   1      30.542  51.566  41.216  0.00  0.00    -0.018 A 
HETATM   21  C   UNK N   1      31.379  50.492  41.615  0.00  0.00     0.078 A 
HETATM   22  C   UNK N   1      32.302  50.676  42.660  0.00  0.00    -0.026 A 
HETATM   23  C   UNK N   1      32.382  51.914  43.314  0.00  0.00     0.046 A 
HETATM   24  C   UNK N   1      33.203  49.546  43.077  0.00  0.00     0.051 C 
HETATM   25  C   UNK N   1      31.557  52.976  42.936  0.00  0.00     0.069 A 
HETATM   26  C   UNK N   1      30.642  52.799  41.882  0.00  0.00     0.047 A 
BRANCH  21  27
HETATM   27  O   UNK N   1      31.316  49.280  41.015  0.00  0.00    -0.360 OA
HETATM   28  H   UNK N   1      31.896  48.544  41.233  0.00  0.00     0.217 HD
ENDBRANCH  21  27
BRANCH  25  29
HETATM   29  O   UNK N   1      31.668  54.153  43.609  0.00  0.00    -0.356 OA
HETATM   30  C   UNK N   1      31.841  55.390  43.021  0.00  0.00     0.210 C 
ENDBRANCH  25  29
ENDBRANCH  19  20
ENDBRANCH  17  19
ENDBRANCH  15  16
ENDBRANCH   6  15
BRANCH   7  31
HETATM   31  C   UNK N   1      28.281  54.737  37.975  0.00  0.00     0.052 C 
BRANCH  31  32
HETATM   32  C   UNK N   1      29.745  54.945  37.464  0.00  0.00     0.051 C 
HETATM   33  C   UNK N   1      30.024  56.435  37.139  0.00  0.00     0.045 C 
HETATM   34  C   UNK N   1      30.723  54.515  38.570  0.00  0.00     0.045 C 
BRANCH  32  35
HETATM   35  O   UNK N   1      30.011  54.125  36.351  0.00  0.00    -0.391 OA
HETATM   36  H   UNK N   1      29.873  53.174  36.596  0.00  0.00     0.210 HD
ENDBRANCH  32  35
ENDBRANCH  31  32
ENDBRANCH   7  31
TORSDOF 10
ENDMDL
MODEL 7
REMARK VINA RESULT:      -4.9      1.654      3.822
REMARK  10 active torsions:
REMARK  status: ('A' for Active; 'I' for Inactive)
REMARK    1  A    between atoms: C_6  and  O_7 
REMARK    2  A    between atoms: C_6  and  C_16 
REMARK    3  A    between atoms: C_9  and  C_10 
REMARK    4  A    between atoms: C_10  and  C_11 
REMARK    5  A    between atoms: C_11  and  O_12 
REMARK    6  A    between atoms: C_16  and  C_17 
REMARK    7  A    between atoms: C_18  and  C_19 
REMARK    8  A    between atoms: C_19  and  C_20 
REMARK    9  A    between atoms: C_21  and  O_22 
REMARK   10  A    between atoms: C_26  and  O_28 
ROOT
HETATM    1  O   UNK N   1      26.364  54.845  42.334  0.00  0.00    -0.297 OA
HETATM    2  C   UNK N   1      26.799  55.857  41.799  0.00  0.00     0.143 C 
HETATM    3  C   UNK N   1      25.924  57.135  41.733  0.00  0.00     0.025 C 
HETATM    4  C   UNK N   1      25.835  57.658  40.247  0.00  0.00    -0.027 C 
HETATM    5  C   UNK N   1      27.173  57.488  39.460  0.00  0.00     0.049 C 
HETATM    6  C   UNK N   1      27.837  56.086  39.562  0.00  0.00     0.072 C 
HETATM    7  C   UNK N   1      28.129  55.763  41.068  0.00  0.00     0.093 C 
HETATM    8  C   UNK N   1      24.627  56.872  39.626  0.00  0.00     0.010 C 
HETATM    9  C   UNK N   1      24.036  56.029  40.753  0.00  0.00     0.002 C 
HETATM   10  C   UNK N   1      24.445  56.783  42.014  0.00  0.00     0.018 C 
HETATM   11  C   UNK N   1      25.476  59.173  40.173  0.00  0.00     0.016 C 
HETATM   12  C   UNK N   1      26.411  58.167  42.776  0.00  0.00     0.024 C 
ENDROOT
BRANCH   6  13
HETATM   13  O   UNK N   1      26.930  55.117  39.091  0.00  0.00    -0.389 OA
HETATM   14  H   UNK N   1      27.182  54.883  38.159  0.00  0.00     0.210 HD
ENDBRANCH   6  13
BRANCH   6  15
HETATM   15  C   UNK N   1      29.128  56.059  38.673  0.00  0.00     0.072 C 
BRANCH  15  16
HETATM   16  C   UNK N   1      29.188  54.896  37.675  0.00  0.00    -0.084 C 
HETATM   17  C   UNK N   1      29.831  53.726  37.929  0.00  0.00    -0.020 C 
HETATM   18  C   UNK N   1      28.469  55.034  36.350  0.00  0.00     0.043 C 
BRANCH  17  19
HETATM   19  C   UNK N   1      30.565  53.368  39.202  0.00  0.00     0.068 C 
BRANCH  19  20
HETATM   20  C   UNK N   1      29.984  52.105  39.800  0.00  0.00    -0.018 A 
HETATM   21  C   UNK N   1      30.797  51.132  40.437  0.00  0.00     0.078 A 
HETATM   22  C   UNK N   1      30.210  49.973  40.972  0.00  0.00    -0.026 A 
HETATM   23  C   UNK N   1      28.825  49.773  40.863  0.00  0.00     0.046 A 
HETATM   24  C   UNK N   1      31.064  48.945  41.663  0.00  0.00     0.051 C 
HETATM   25  C   UNK N   1      28.016  50.719  40.230  0.00  0.00     0.069 A 
HETATM   26  C   UNK N   1      28.599  51.887  39.705  0.00  0.00     0.047 A 
BRANCH  21  27
HETATM   27  O   UNK N   1      32.137  51.286  40.545  0.00  0.00    -0.360 OA
HETATM   28  H   UNK N   1      32.683  51.713  39.878  0.00  0.00     0.217 HD
ENDBRANCH  21  27
BRANCH  25  29
HETATM   29  O   UNK N   1      26.681  50.474  40.143  0.00  0.00    -0.356 OA
HETATM   30  C   UNK N   1      25.831  50.315  41.219  0.00  0.00     0.210 C 
ENDBRANCH  25  29
ENDBRANCH  19  20
ENDBRANCH  17  19
ENDBRANCH  15  16
ENDBRANCH   6  15
BRANCH   7  31
HETATM   31  C   UNK N   1      29.278  56.581  41.739  0.00  0.00     0.052 C 
BRANCH  31  32
HETATM   32  C   UNK N   1      30.478  55.746  42.293  0.00  0.00     0.051 C 
HETATM   33  C   UNK N   1      30.081  54.264  42.515  0.00  0.00     0.045 C 
HETATM   34  C   UNK N   1      31.621  55.776  41.265  0.00  0.00     0.045 C 
BRANCH  32  35
HETATM   35  O   UNK N   1      30.987  56.316  43.476  0.00  0.00    -0.391 OA
HETATM   36  H   UNK N   1      31.464  55.623  44.002  0.00  0.00     0.210 HD
ENDBRANCH  32  35
ENDBRANCH  31  32
ENDBRANCH   7  31
TORSDOF 10
ENDMDL
MODEL 8
REMARK VINA RESULT:      -4.8     17.699     20.510
REMARK  10 active torsions:
REMARK  status: ('A' for Active; 'I' for Inactive)
REMARK    1  A    between atoms: C_6  and  O_7 
REMARK    2  A    between atoms: C_6  and  C_16 
REMARK    3  A    between atoms: C_9  and  C_10 
REMARK    4  A    between atoms: C_10  and  C_11 
REMARK    5  A    between atoms: C_11  and  O_12 
REMARK    6  A    between atoms: C_16  and  C_17 
REMARK    7  A    between atoms: C_18  and  C_19 
REMARK    8  A    between atoms: C_19  and  C_20 
REMARK    9  A    between atoms: C_21  and  O_22 
REMARK   10  A    between atoms: C_26  and  O_28 
ROOT
HETATM    1  O   UNK N   1      30.536  41.111  58.862  0.00  0.00    -0.297 OA
HETATM    2  C   UNK N   1      30.272  42.033  58.102  0.00  0.00     0.143 C 
HETATM    3  C   UNK N   1      31.278  43.199  57.920  0.00  0.00     0.025 C 
HETATM    4  C   UNK N   1      30.558  44.582  58.160  0.00  0.00    -0.027 C 
HETATM    5  C   UNK N   1      29.097  44.612  57.611  0.00  0.00     0.049 C 
HETATM    6  C   UNK N   1      28.208  43.400  58.005  0.00  0.00     0.072 C 
HETATM    7  C   UNK N   1      28.879  42.080  57.492  0.00  0.00     0.093 C 
HETATM    8  C   UNK N   1      30.662  44.816  59.708  0.00  0.00     0.010 C 
HETATM    9  C   UNK N   1      31.478  43.653  60.265  0.00  0.00     0.002 C 
HETATM   10  C   UNK N   1      32.310  43.196  59.072  0.00  0.00     0.018 C 
HETATM   11  C   UNK N   1      31.305  45.765  57.472  0.00  0.00     0.016 C 
HETATM   12  C   UNK N   1      32.017  43.056  56.570  0.00  0.00     0.024 C 
ENDROOT
BRANCH   6  13
HETATM   13  O   UNK N   1      28.142  43.321  59.410  0.00  0.00    -0.389 OA
HETATM   14  H   UNK N   1      27.366  42.750  59.653  0.00  0.00     0.210 HD
ENDBRANCH   6  13
BRANCH   6  15
HETATM   15  C   UNK N   1      26.764  43.609  57.433  0.00  0.00     0.072 C 
BRANCH  15  16
HETATM   16  C   UNK N   1      25.750  44.151  58.449  0.00  0.00    -0.084 C 
HETATM   17  C   UNK N   1      25.436  45.468  58.564  0.00  0.00    -0.020 C 
HETATM   18  C   UNK N   1      25.031  43.173  59.354  0.00  0.00     0.043 C 
BRANCH  17  19
HETATM   19  C   UNK N   1      26.001  46.596  57.729  0.00  0.00     0.068 C 
BRANCH  19  20
HETATM   20  C   UNK N   1      27.171  47.236  58.443  0.00  0.00    -0.018 A 
HETATM   21  C   UNK N   1      28.127  48.030  57.758  0.00  0.00     0.078 A 
HETATM   22  C   UNK N   1      29.200  48.599  58.466  0.00  0.00    -0.026 A 
HETATM   23  C   UNK N   1      29.331  48.369  59.844  0.00  0.00     0.046 A 
HETATM   24  C   UNK N   1      30.207  49.454  57.748  0.00  0.00     0.051 C 
HETATM   25  C   UNK N   1      28.401  47.582  60.528  0.00  0.00     0.069 A 
HETATM   26  C   UNK N   1      27.319  47.022  59.824  0.00  0.00     0.047 A 
BRANCH  21  27
HETATM   27  O   UNK N   1      28.039  48.258  56.427  0.00  0.00    -0.360 OA
HETATM   28  H   UNK N   1      28.452  49.005  55.983  0.00  0.00     0.217 HD
ENDBRANCH  21  27
BRANCH  25  29
HETATM   29  O   UNK N   1      28.579  47.383  61.862  0.00  0.00    -0.356 OA
HETATM   30  C   UNK N   1      28.090  46.307  62.576  0.00  0.00     0.210 C 
ENDBRANCH  25  29
ENDBRANCH  19  20
ENDBRANCH  17  19
ENDBRANCH  15  16
ENDBRANCH   6  15
BRANCH   7  31
HETATM   31  C   UNK N   1      28.860  41.852  55.946  0.00  0.00     0.052 C 
BRANCH  31  32
HETATM   32  C   UNK N   1      28.550  40.393  55.475  0.00  0.00     0.051 C 
HETATM   33  C   UNK N   1      29.843  39.646  55.058  0.00  0.00     0.045 C 
HETATM   34  C   UNK N   1      27.917  39.618  56.642  0.00  0.00     0.045 C 
BRANCH  32  35
HETATM   35  O   UNK N   1      27.605  40.390  54.431  0.00  0.00    -0.391 OA
HETATM   36  H   UNK N   1      27.919  40.977  53.696  0.00  0.00     0.210 HD
ENDBRANCH  32  35
ENDBRANCH  31  32
ENDBRANCH   7  31
TORSDOF 10
ENDMDL
MODEL 9
REMARK VINA RESULT:      -4.6     16.144     20.151
REMARK  10 active torsions:
REMARK  status: ('A' for Active; 'I' for Inactive)
REMARK    1  A    between atoms: C_6  and  O_7 
REMARK    2  A    between atoms: C_6  and  C_16 
REMARK    3  A    between atoms: C_9  and  C_10 
REMARK    4  A    between atoms: C_10  and  C_11 
REMARK    5  A    between atoms: C_11  and  O_12 
REMARK    6  A    between atoms: C_16  and  C_17 
REMARK    7  A    between atoms: C_18  and  C_19 
REMARK    8  A    between atoms: C_19  and  C_20 
REMARK    9  A    between atoms: C_21  and  O_22 
REMARK   10  A    between atoms: C_26  and  O_28 
ROOT
HETATM    1  O   UNK N   1      31.095  45.845  58.033  0.00  0.00    -0.297 OA
HETATM    2  C   UNK N   1      30.530  44.984  58.695  0.00  0.00     0.143 C 
HETATM    3  C   UNK N   1      31.259  43.654  59.020  0.00  0.00     0.025 C 
HETATM    4  C   UNK N   1      30.364  42.426  58.597  0.00  0.00    -0.027 C 
HETATM    5  C   UNK N   1      28.843  42.661  58.858  0.00  0.00     0.049 C 
HETATM    6  C   UNK N   1      28.277  44.015  58.349  0.00  0.00     0.072 C 
HETATM    7  C   UNK N   1      29.061  45.190  59.029  0.00  0.00     0.093 C 
HETATM    8  C   UNK N   1      30.722  42.181  57.089  0.00  0.00     0.010 C 
HETATM    9  C   UNK N   1      31.823  43.178  56.740  0.00  0.00     0.002 C 
HETATM   10  C   UNK N   1      32.477  43.473  58.085  0.00  0.00     0.018 C 
HETATM   11  C   UNK N   1      30.742  41.125  59.369  0.00  0.00     0.016 C 
HETATM   12  C   UNK N   1      31.738  43.658  60.490  0.00  0.00     0.024 C 
ENDROOT
BRANCH   6  13
HETATM   13  O   UNK N   1      28.498  44.108  56.961  0.00  0.00    -0.389 OA
HETATM   14  H   UNK N   1      27.891  43.467  56.505  0.00  0.00     0.210 HD
ENDBRANCH   6  13
BRANCH   6  15
HETATM   15  C   UNK N   1      26.736  44.070  58.629  0.00  0.00     0.072 C 
BRANCH  15  16
HETATM   16  C   UNK N   1      25.913  44.746  57.526  0.00  0.00    -0.084 C 
HETATM   17  C   UNK N   1      25.726  46.090  57.449  0.00  0.00    -0.020 C 
HETATM   18  C   UNK N   1      25.300  43.886  56.441  0.00  0.00     0.043 C 
BRANCH  17  19
HETATM   19  C   UNK N   1      26.288  47.126  58.398  0.00  0.00     0.068 C 
BRANCH  19  20
HETATM   20  C   UNK N   1      26.538  48.424  57.662  0.00  0.00    -0.018 A 
HETATM   21  C   UNK N   1      27.803  48.740  57.103  0.00  0.00     0.078 A 
HETATM   22  C   UNK N   1      27.986  49.961  56.432  0.00  0.00    -0.026 A 
HETATM   23  C   UNK N   1      26.923  50.871  56.330  0.00  0.00     0.046 A 
HETATM   24  C   UNK N   1      29.321  50.294  55.823  0.00  0.00     0.051 C 
HETATM   25  C   UNK N   1      25.676  50.576  56.884  0.00  0.00     0.069 A 
HETATM   26  C   UNK N   1      25.485  49.348  57.545  0.00  0.00     0.047 A 
BRANCH  21  27
HETATM   27  O   UNK N   1      28.854  47.891  57.197  0.00  0.00    -0.360 OA
HETATM   28  H   UNK N   1      29.239  47.607  58.031  0.00  0.00     0.217 HD
ENDBRANCH  21  27
BRANCH  25  29
HETATM   29  O   UNK N   1      24.681  51.497  56.765  0.00  0.00    -0.356 OA
HETATM   30  C   UNK N   1      24.010  51.793  55.596  0.00  0.00     0.210 C 
ENDBRANCH  25  29
ENDBRANCH  19  20
ENDBRANCH  17  19
ENDBRANCH  15  16
ENDBRANCH   6  15
BRANCH   7  31
HETATM   31  C   UNK N   1      28.785  45.414  60.551  0.00  0.00     0.052 C 
BRANCH  31  32
HETATM   32  C   UNK N   1      29.093  46.847  61.097  0.00  0.00     0.051 C 
HETATM   33  C   UNK N   1      27.898  47.413  61.906  0.00  0.00     0.045 C 
HETATM   34  C   UNK N   1      30.304  46.769  62.041  0.00  0.00     0.045 C 
BRANCH  32  35
HETATM   35  O   UNK N   1      29.454  47.718  60.051  0.00  0.00    -0.391 OA
HETATM   36  H   UNK N   1      30.252  47.362  59.581  0.00  0.00     0.210 HD
ENDBRANCH  32  35
ENDBRANCH  31  32
ENDBRANCH   7  31
TORSDOF 10
ENDMDL
