MODEL 1
REMARK VINA RESULT:      -6.4      0.000      0.000
REMARK  9 active torsions:
REMARK  status: ('A' for Active; 'I' for Inactive)
REMARK    1  A    between atoms: C_6  and  C_10 
REMARK    2  A    between atoms: C_7  and  O_8 
REMARK    3  A    between atoms: C_14  and  C_23 
REMARK    4  A    between atoms: C_15  and  C_20 
REMARK    5  A    between atoms: C_20  and  O_21 
REMARK    6  A    between atoms: C_25  and  O_26 
REMARK    7  A    between atoms: C_28  and  O_29 
REMARK    8  A    between atoms: C_34  and  O_35 
REMARK    9  A    between atoms: C_38  and  O_39 
ROOT
HETATM    1  C   UNK N   1      29.232  55.941  39.497  0.00  0.00    -0.023 A 
HETATM    2  C   UNK N   1      29.824  54.723  39.893  0.00  0.00     0.049 A 
HETATM    3  C   UNK N   1      30.381  54.585  41.164  0.00  0.00     0.103 A 
HETATM    4  O   UNK N   1      30.905  53.401  41.567  0.00  0.00    -0.336 OA
HETATM    5  C   UNK N   1      31.163  53.172  42.913  0.00  0.00     0.193 C 
HETATM    6  C   UNK N   1      31.842  54.434  43.504  0.00  0.00     0.186 C 
HETATM    7  O   UNK N   1      31.015  55.526  43.255  0.00  0.00    -0.338 OA
HETATM    8  C   UNK N   1      30.408  55.674  42.048  0.00  0.00     0.102 A 
HETATM    9  C   UNK N   1      29.822  56.884  41.680  0.00  0.00     0.040 A 
HETATM   10  C   UNK N   1      29.228  57.021  40.417  0.00  0.00     0.013 A 
ENDROOT
BRANCH   1  11
HETATM   11  C   UNK N   1      28.663  56.049  38.076  0.00  0.00     0.198 C 
HETATM   12  O   UNK N   1      28.427  54.777  37.578  0.00  0.00    -0.337 OA
HETATM   13  C   UNK N   1      27.372  54.023  37.977  0.00  0.00     0.089 A 
HETATM   14  C   UNK N   1      26.210  54.638  38.503  0.00  0.00     0.079 A 
HETATM   15  C   UNK N   1      27.454  52.635  37.857  0.00  0.00     0.074 A 
HETATM   16  C   UNK N   1      26.200  56.143  38.527  0.00  0.00     0.196 C 
HETATM   17  C   UNK N   1      25.130  53.801  38.929  0.00  0.00     0.085 A 
HETATM   18  O   UNK N   1      25.222  56.774  38.890  0.00  0.00    -0.289 OA
HETATM   19  C   UNK N   1      27.372  56.891  37.920  0.00  0.00     0.227 C 
HETATM   20  C   UNK N   1      25.247  52.409  38.805  0.00  0.00     0.074 A 
HETATM   21  C   UNK N   1      26.395  51.825  38.270  0.00  0.00     0.071 A 
BRANCH  19  22
HETATM   22  O   UNK N   1      27.105  57.165  36.566  0.00  0.00    -0.385 OA
HETATM   23  H   UNK N   1      27.304  56.352  36.034  0.00  0.00     0.210 HD
ENDBRANCH  19  22
BRANCH  17  24
HETATM   24  O   UNK N   1      23.977  54.278  39.451  0.00  0.00    -0.360 OA
HETATM   25  H   UNK N   1      23.465  53.865  40.151  0.00  0.00     0.217 HD
ENDBRANCH  17  24
BRANCH  21  26
HETATM   26  O   UNK N   1      26.472  50.483  38.162  0.00  0.00    -0.361 OA
HETATM   27  H   UNK N   1      25.957  49.992  37.506  0.00  0.00     0.217 HD
ENDBRANCH  21  26
ENDBRANCH   1  11
BRANCH   5  28
HETATM   28  C   UNK N   1      31.969  51.906  43.072  0.00  0.00    -0.024 A 
HETATM   29  C   UNK N   1      31.543  50.728  42.440  0.00  0.00     0.049 A 
HETATM   30  C   UNK N   1      32.282  49.534  42.569  0.00  0.00     0.101 A 
HETATM   31  C   UNK N   1      33.463  49.538  43.341  0.00  0.00     0.099 A 
HETATM   32  C   UNK N   1      33.884  50.717  43.968  0.00  0.00     0.040 A 
HETATM   33  C   UNK N   1      33.145  51.893  43.837  0.00  0.00     0.013 A 
BRANCH  30  34
HETATM   34  O   UNK N   1      31.883  48.379  41.967  0.00  0.00    -0.353 OA
HETATM   35  C   UNK N   1      31.076  48.302  40.847  0.00  0.00     0.210 C 
ENDBRANCH  30  34
BRANCH  31  36
HETATM   36  O   UNK N   1      34.203  48.419  43.490  0.00  0.00    -0.358 OA
HETATM   37  H   UNK N   1      34.050  47.785  44.204  0.00  0.00     0.218 HD
ENDBRANCH  31  36
ENDBRANCH   5  28
BRANCH   6  38
HETATM   38  C   UNK N   1      32.141  54.333  45.005  0.00  0.00     0.199 C 
BRANCH  38  39
HETATM   39  O   UNK N   1      30.950  54.222  45.733  0.00  0.00    -0.398 OA
HETATM   40  H   UNK N   1      30.377  54.976  45.439  0.00  0.00     0.209 HD
ENDBRANCH  38  39
ENDBRANCH   6  38
TORSDOF 9
ENDMDL
MODEL 2
REMARK VINA RESULT:      -6.2     18.160     23.250
REMARK  9 active torsions:
REMARK  status: ('A' for Active; 'I' for Inactive)
REMARK    1  A    between atoms: C_6  and  C_10 
REMARK    2  A    between atoms: C_7  and  O_8 
REMARK    3  A    between atoms: C_14  and  C_23 
REMARK    4  A    between atoms: C_15  and  C_20 
REMARK    5  A    between atoms: C_20  and  O_21 
REMARK    6  A    between atoms: C_25  and  O_26 
REMARK    7  A    between atoms: C_28  and  O_29 
REMARK    8  A    between atoms: C_34  and  O_35 
REMARK    9  A    between atoms: C_38  and  O_39 
ROOT
HETATM    1  C   UNK N   1      33.217  43.720  62.064  0.00  0.00    -0.023 A 
HETATM    2  C   UNK N   1      31.945  43.907  61.481  0.00  0.00     0.049 A 
HETATM    3  C   UNK N   1      31.741  43.648  60.126  0.00  0.00     0.103 A 
HETATM    4  O   UNK N   1      30.509  43.778  59.573  0.00  0.00    -0.336 OA
HETATM    5  C   UNK N   1      30.241  43.225  58.327  0.00  0.00     0.193 C 
HETATM    6  C   UNK N   1      31.428  43.540  57.383  0.00  0.00     0.186 C 
HETATM    7  O   UNK N   1      32.594  43.068  57.982  0.00  0.00    -0.338 OA
HETATM    8  C   UNK N   1      32.811  43.251  59.312  0.00  0.00     0.102 A 
HETATM    9  C   UNK N   1      34.074  43.053  59.868  0.00  0.00     0.040 A 
HETATM   10  C   UNK N   1      34.280  43.276  61.237  0.00  0.00     0.013 A 
ENDROOT
BRANCH   1  11
HETATM   11  C   UNK N   1      33.394  44.051  63.553  0.00  0.00     0.198 C 
HETATM   12  O   UNK N   1      34.745  44.072  63.860  0.00  0.00    -0.337 OA
HETATM   13  C   UNK N   1      35.557  45.098  63.502  0.00  0.00     0.089 A 
HETATM   14  C   UNK N   1      35.022  46.388  63.266  0.00  0.00     0.079 A 
HETATM   15  C   UNK N   1      36.927  44.858  63.376  0.00  0.00     0.074 A 
HETATM   16  C   UNK N   1      33.544  46.552  63.496  0.00  0.00     0.196 C 
HETATM   17  C   UNK N   1      35.914  47.434  62.872  0.00  0.00     0.085 A 
HETATM   18  O   UNK N   1      32.993  47.635  63.393  0.00  0.00    -0.289 OA
HETATM   19  C   UNK N   1      32.753  45.375  64.037  0.00  0.00     0.227 C 
HETATM   20  C   UNK N   1      37.284  47.159  62.743  0.00  0.00     0.074 A 
HETATM   21  C   UNK N   1      37.792  45.885  62.995  0.00  0.00     0.071 A 
BRANCH  19  22
HETATM   22  O   UNK N   1      32.719  45.438  65.442  0.00  0.00    -0.385 OA
HETATM   23  H   UNK N   1      33.635  45.276  65.788  0.00  0.00     0.210 HD
ENDBRANCH  19  22
BRANCH  17  24
HETATM   24  O   UNK N   1      35.514  48.700  62.615  0.00  0.00    -0.360 OA
HETATM   25  H   UNK N   1      34.946  48.973  61.890  0.00  0.00     0.217 HD
ENDBRANCH  17  24
BRANCH  21  26
HETATM   26  O   UNK N   1      39.115  45.657  62.865  0.00  0.00    -0.361 OA
HETATM   27  H   UNK N   1      39.765  46.056  63.462  0.00  0.00     0.217 HD
ENDBRANCH  21  26
ENDBRANCH   1  11
BRANCH   5  28
HETATM   28  C   UNK N   1      28.905  43.717  57.826  0.00  0.00    -0.024 A 
HETATM   29  C   UNK N   1      28.491  45.024  58.122  0.00  0.00     0.049 A 
HETATM   30  C   UNK N   1      27.251  45.509  57.660  0.00  0.00     0.101 A 
HETATM   31  C   UNK N   1      26.427  44.662  56.888  0.00  0.00     0.099 A 
HETATM   32  C   UNK N   1      26.847  43.359  56.593  0.00  0.00     0.040 A 
HETATM   33  C   UNK N   1      28.075  42.887  57.058  0.00  0.00     0.013 A 
BRANCH  30  34
HETATM   34  O   UNK N   1      26.828  46.773  57.941  0.00  0.00    -0.353 OA
HETATM   35  C   UNK N   1      27.392  47.931  57.437  0.00  0.00     0.210 C 
ENDBRANCH  30  34
BRANCH  31  36
HETATM   36  O   UNK N   1      25.233  45.085  56.422  0.00  0.00    -0.358 OA
HETATM   37  H   UNK N   1      25.153  45.737  55.712  0.00  0.00     0.218 HD
ENDBRANCH  31  36
ENDBRANCH   5  28
BRANCH   6  38
HETATM   38  C   UNK N   1      31.281  42.943  55.979  0.00  0.00     0.199 C 
BRANCH  38  39
HETATM   39  O   UNK N   1      32.541  42.666  55.432  0.00  0.00    -0.398 OA
HETATM   40  H   UNK N   1      32.384  42.458  54.475  0.00  0.00     0.209 HD
ENDBRANCH  38  39
ENDBRANCH   6  38
TORSDOF 9
ENDMDL
MODEL 3
REMARK VINA RESULT:      -6.1     15.194     19.978
REMARK  9 active torsions:
REMARK  status: ('A' for Active; 'I' for Inactive)
REMARK    1  A    between atoms: C_6  and  C_10 
REMARK    2  A    between atoms: C_7  and  O_8 
REMARK    3  A    between atoms: C_14  and  C_23 
REMARK    4  A    between atoms: C_15  and  C_20 
REMARK    5  A    between atoms: C_20  and  O_21 
REMARK    6  A    between atoms: C_25  and  O_26 
REMARK    7  A    between atoms: C_28  and  O_29 
REMARK    8  A    between atoms: C_34  and  O_35 
REMARK    9  A    between atoms: C_38  and  O_39 
ROOT
HETATM    1  C   UNK N   1      30.699  42.400  57.060  0.00  0.00    -0.023 A 
HETATM    2  C   UNK N   1      30.069  42.720  55.839  0.00  0.00     0.049 A 
HETATM    3  C   UNK N   1      28.862  42.118  55.485  0.00  0.00     0.103 A 
HETATM    4  O   UNK N   1      28.227  42.460  54.336  0.00  0.00    -0.336 OA
HETATM    5  C   UNK N   1      26.897  42.108  54.141  0.00  0.00     0.193 C 
HETATM    6  C   UNK N   1      26.707  40.638  54.591  0.00  0.00     0.186 C 
HETATM    7  O   UNK N   1      27.142  40.531  55.910  0.00  0.00    -0.338 OA
HETATM    8  C   UNK N   1      28.286  41.145  56.314  0.00  0.00     0.102 A 
HETATM    9  C   UNK N   1      28.888  40.819  57.528  0.00  0.00     0.040 A 
HETATM   10  C   UNK N   1      30.083  41.446  57.909  0.00  0.00     0.013 A 
ENDROOT
BRANCH   1  11
HETATM   11  C   UNK N   1      32.043  43.068  57.386  0.00  0.00     0.198 C 
HETATM   12  O   UNK N   1      31.946  44.430  57.153  0.00  0.00    -0.337 OA
HETATM   13  C   UNK N   1      31.290  45.269  57.993  0.00  0.00     0.089 A 
HETATM   14  C   UNK N   1      31.115  44.926  59.356  0.00  0.00     0.079 A 
HETATM   15  C   UNK N   1      30.795  46.473  57.490  0.00  0.00     0.074 A 
HETATM   16  C   UNK N   1      31.745  43.637  59.809  0.00  0.00     0.196 C 
HETATM   17  C   UNK N   1      30.399  45.832  60.200  0.00  0.00     0.085 A 
HETATM   18  O   UNK N   1      31.719  43.282  60.975  0.00  0.00    -0.289 OA
HETATM   19  C   UNK N   1      32.584  42.846  58.821  0.00  0.00     0.227 C 
HETATM   20  C   UNK N   1      29.905  47.030  59.663  0.00  0.00     0.074 A 
HETATM   21  C   UNK N   1      30.101  47.355  58.320  0.00  0.00     0.071 A 
BRANCH  19  22
HETATM   22  O   UNK N   1      33.929  43.243  58.922  0.00  0.00    -0.385 OA
HETATM   23  H   UNK N   1      34.314  42.852  59.749  0.00  0.00     0.210 HD
ENDBRANCH  19  22
BRANCH  17  24
HETATM   24  O   UNK N   1      30.168  45.605  61.513  0.00  0.00    -0.360 OA
HETATM   25  H   UNK N   1      29.737  44.830  61.881  0.00  0.00     0.217 HD
ENDBRANCH  17  24
BRANCH  21  26
HETATM   26  O   UNK N   1      29.615  48.517  57.838  0.00  0.00    -0.361 OA
HETATM   27  H   UNK N   1      28.669  48.654  57.687  0.00  0.00     0.217 HD
ENDBRANCH  21  26
ENDBRANCH   1  11
BRANCH   5  28
HETATM   28  C   UNK N   1      26.503  42.371  52.707  0.00  0.00    -0.024 A 
HETATM   29  C   UNK N   1      25.514  43.322  52.422  0.00  0.00     0.049 A 
HETATM   30  C   UNK N   1      25.133  43.589  51.092  0.00  0.00     0.101 A 
HETATM   31  C   UNK N   1      25.765  42.887  50.043  0.00  0.00     0.099 A 
HETATM   32  C   UNK N   1      26.753  41.939  50.333  0.00  0.00     0.040 A 
HETATM   33  C   UNK N   1      27.121  41.680  51.654  0.00  0.00     0.013 A 
BRANCH  30  34
HETATM   34  O   UNK N   1      24.170  44.506  50.794  0.00  0.00    -0.353 OA
HETATM   35  C   UNK N   1      24.202  45.840  51.157  0.00  0.00     0.210 C 
ENDBRANCH  30  34
BRANCH  31  36
HETATM   36  O   UNK N   1      25.434  43.112  48.754  0.00  0.00    -0.358 OA
HETATM   37  H   UNK N   1      26.092  43.320  48.077  0.00  0.00     0.218 HD
ENDBRANCH  31  36
ENDBRANCH   5  28
BRANCH   6  38
HETATM   38  C   UNK N   1      25.264  40.133  54.472  0.00  0.00     0.199 C 
BRANCH  38  39
HETATM   39  O   UNK N   1      25.158  39.200  53.432  0.00  0.00    -0.398 OA
HETATM   40  H   UNK N   1      25.360  39.696  52.597  0.00  0.00     0.209 HD
ENDBRANCH  38  39
ENDBRANCH   6  38
TORSDOF 9
ENDMDL
MODEL 4
REMARK VINA RESULT:      -6.0      0.827      1.602
REMARK  9 active torsions:
REMARK  status: ('A' for Active; 'I' for Inactive)
REMARK    1  A    between atoms: C_6  and  C_10 
REMARK    2  A    between atoms: C_7  and  O_8 
REMARK    3  A    between atoms: C_14  and  C_23 
REMARK    4  A    between atoms: C_15  and  C_20 
REMARK    5  A    between atoms: C_20  and  O_21 
REMARK    6  A    between atoms: C_25  and  O_26 
REMARK    7  A    between atoms: C_28  and  O_29 
REMARK    8  A    between atoms: C_34  and  O_35 
REMARK    9  A    between atoms: C_38  and  O_39 
ROOT
HETATM    1  C   UNK N   1      29.420  55.531  39.607  0.00  0.00    -0.023 A 
HETATM    2  C   UNK N   1      30.033  54.306  39.945  0.00  0.00     0.049 A 
HETATM    3  C   UNK N   1      30.578  54.111  41.214  0.00  0.00     0.103 A 
HETATM    4  O   UNK N   1      31.122  52.918  41.560  0.00  0.00    -0.336 OA
HETATM    5  C   UNK N   1      31.370  52.624  42.895  0.00  0.00     0.193 C 
HETATM    6  C   UNK N   1      32.016  53.865  43.560  0.00  0.00     0.186 C 
HETATM    7  O   UNK N   1      31.169  54.952  43.359  0.00  0.00    -0.338 OA
HETATM    8  C   UNK N   1      30.573  55.152  42.153  0.00  0.00     0.102 A 
HETATM    9  C   UNK N   1      29.967  56.368  41.843  0.00  0.00     0.040 A 
HETATM   10  C   UNK N   1      29.384  56.560  40.582  0.00  0.00     0.013 A 
ENDROOT
BRANCH   1  11
HETATM   11  C   UNK N   1      28.865  55.702  38.186  0.00  0.00     0.198 C 
HETATM   12  O   UNK N   1      28.505  54.463  37.681  0.00  0.00    -0.337 OA
HETATM   13  C   UNK N   1      27.382  53.814  38.076  0.00  0.00     0.089 A 
HETATM   14  C   UNK N   1      26.285  54.536  38.605  0.00  0.00     0.079 A 
HETATM   15  C   UNK N   1      27.327  52.425  37.947  0.00  0.00     0.074 A 
HETATM   16  C   UNK N   1      26.422  56.034  38.639  0.00  0.00     0.196 C 
HETATM   17  C   UNK N   1      25.129  53.807  39.027  0.00  0.00     0.085 A 
HETATM   18  O   UNK N   1      25.511  56.757  39.006  0.00  0.00    -0.289 OA
HETATM   19  C   UNK N   1      27.663  56.668  38.036  0.00  0.00     0.227 C 
HETATM   20  C   UNK N   1      25.108  52.410  38.894  0.00  0.00     0.074 A 
HETATM   21  C   UNK N   1      26.194  51.720  38.356  0.00  0.00     0.071 A 
BRANCH  19  22
HETATM   22  O   UNK N   1      27.424  56.975  36.684  0.00  0.00    -0.385 OA
HETATM   23  H   UNK N   1      27.702  57.914  36.519  0.00  0.00     0.210 HD
ENDBRANCH  19  22
BRANCH  17  24
HETATM   24  O   UNK N   1      24.027  54.391  39.552  0.00  0.00    -0.360 OA
HETATM   25  H   UNK N   1      23.619  55.203  39.239  0.00  0.00     0.217 HD
ENDBRANCH  17  24
BRANCH  21  26
HETATM   26  O   UNK N   1      26.139  50.378  38.239  0.00  0.00    -0.361 OA
HETATM   27  H   UNK N   1      26.505  49.915  37.472  0.00  0.00     0.217 HD
ENDBRANCH  21  26
ENDBRANCH   1  11
BRANCH   5  28
HETATM   28  C   UNK N   1      32.199  51.367  42.996  0.00  0.00    -0.024 A 
HETATM   29  C   UNK N   1      33.565  51.459  43.301  0.00  0.00     0.049 A 
HETATM   30  C   UNK N   1      34.360  50.299  43.407  0.00  0.00     0.101 A 
HETATM   31  C   UNK N   1      33.761  49.037  43.206  0.00  0.00     0.099 A 
HETATM   32  C   UNK N   1      32.397  48.951  42.903  0.00  0.00     0.040 A 
HETATM   33  C   UNK N   1      31.620  50.105  42.798  0.00  0.00     0.013 A 
BRANCH  30  34
HETATM   34  O   UNK N   1      35.689  50.368  43.698  0.00  0.00    -0.353 OA
HETATM   35  C   UNK N   1      36.711  49.992  42.846  0.00  0.00     0.210 C 
ENDBRANCH  30  34
BRANCH  31  36
HETATM   36  O   UNK N   1      34.483  47.900  43.300  0.00  0.00    -0.358 OA
HETATM   37  H   UNK N   1      34.934  47.506  42.541  0.00  0.00     0.218 HD
ENDBRANCH  31  36
ENDBRANCH   5  28
BRANCH   6  38
HETATM   38  C   UNK N   1      32.300  53.691  45.056  0.00  0.00     0.199 C 
BRANCH  38  39
HETATM   39  O   UNK N   1      31.128  53.872  45.801  0.00  0.00    -0.398 OA
HETATM   40  H   UNK N   1      31.023  54.853  45.913  0.00  0.00     0.209 HD
ENDBRANCH  38  39
ENDBRANCH   6  38
TORSDOF 9
ENDMDL
MODEL 5
REMARK VINA RESULT:      -5.9     17.392     22.545
REMARK  9 active torsions:
REMARK  status: ('A' for Active; 'I' for Inactive)
REMARK    1  A    between atoms: C_6  and  C_10 
REMARK    2  A    between atoms: C_7  and  O_8 
REMARK    3  A    between atoms: C_14  and  C_23 
REMARK    4  A    between atoms: C_15  and  C_20 
REMARK    5  A    between atoms: C_20  and  O_21 
REMARK    6  A    between atoms: C_25  and  O_26 
REMARK    7  A    between atoms: C_28  and  O_29 
REMARK    8  A    between atoms: C_34  and  O_35 
REMARK    9  A    between atoms: C_38  and  O_39 
ROOT
HETATM    1  C   UNK N   1      31.118  43.989  59.353  0.00  0.00    -0.023 A 
HETATM    2  C   UNK N   1      30.306  45.010  59.890  0.00  0.00     0.049 A 
HETATM    3  C   UNK N   1      30.073  46.183  59.173  0.00  0.00     0.103 A 
HETATM    4  O   UNK N   1      29.251  47.144  59.663  0.00  0.00    -0.336 OA
HETATM    5  C   UNK N   1      28.774  48.147  58.829  0.00  0.00     0.193 C 
HETATM    6  C   UNK N   1      29.946  48.659  57.955  0.00  0.00     0.186 C 
HETATM    7  O   UNK N   1      30.494  47.568  57.286  0.00  0.00    -0.338 OA
HETATM    8  C   UNK N   1      30.690  46.387  57.930  0.00  0.00     0.102 A 
HETATM    9  C   UNK N   1      31.491  45.389  57.378  0.00  0.00     0.040 A 
HETATM   10  C   UNK N   1      31.701  44.191  58.076  0.00  0.00     0.013 A 
ENDROOT
BRANCH   1  11
HETATM   11  C   UNK N   1      31.367  42.732  60.199  0.00  0.00     0.198 C 
HETATM   12  O   UNK N   1      32.732  42.532  60.333  0.00  0.00    -0.337 OA
HETATM   13  C   UNK N   1      33.500  43.282  61.163  0.00  0.00     0.089 A 
HETATM   14  C   UNK N   1      32.923  43.935  62.279  0.00  0.00     0.079 A 
HETATM   15  C   UNK N   1      34.866  43.394  60.897  0.00  0.00     0.074 A 
HETATM   16  C   UNK N   1      31.456  43.694  62.512  0.00  0.00     0.196 C 
HETATM   17  C   UNK N   1      33.769  44.730  63.115  0.00  0.00     0.085 A 
HETATM   18  O   UNK N   1      30.875  44.147  63.483  0.00  0.00    -0.289 OA
HETATM   19  C   UNK N   1      30.723  42.720  61.608  0.00  0.00     0.227 C 
HETATM   20  C   UNK N   1      35.136  44.831  62.816  0.00  0.00     0.074 A 
HETATM   21  C   UNK N   1      35.686  44.168  61.719  0.00  0.00     0.071 A 
BRANCH  19  22
HETATM   22  O   UNK N   1      30.763  41.432  62.173  0.00  0.00    -0.385 OA
HETATM   23  H   UNK N   1      30.267  40.810  61.579  0.00  0.00     0.210 HD
ENDBRANCH  19  22
BRANCH  17  24
HETATM   24  O   UNK N   1      33.326  45.402  64.203  0.00  0.00    -0.360 OA
HETATM   25  H   UNK N   1      32.668  46.101  64.201  0.00  0.00     0.217 HD
ENDBRANCH  17  24
BRANCH  21  26
HETATM   26  O   UNK N   1      37.005  44.284  61.463  0.00  0.00    -0.361 OA
HETATM   27  H   UNK N   1      37.409  43.899  60.673  0.00  0.00     0.217 HD
ENDBRANCH  21  26
ENDBRANCH   1  11
BRANCH   5  28
HETATM   28  C   UNK N   1      28.102  49.220  59.651  0.00  0.00    -0.024 A 
HETATM   29  C   UNK N   1      28.826  49.882  60.653  0.00  0.00     0.049 A 
HETATM   30  C   UNK N   1      28.223  50.892  61.431  0.00  0.00     0.101 A 
HETATM   31  C   UNK N   1      26.876  51.234  61.185  0.00  0.00     0.099 A 
HETATM   32  C   UNK N   1      26.158  50.571  60.182  0.00  0.00     0.040 A 
HETATM   33  C   UNK N   1      26.764  49.571  59.420  0.00  0.00     0.013 A 
BRANCH  30  34
HETATM   34  O   UNK N   1      28.907  51.544  62.412  0.00  0.00    -0.353 OA
HETATM   35  C   UNK N   1      29.564  50.933  63.465  0.00  0.00     0.210 C 
ENDBRANCH  30  34
BRANCH  31  36
HETATM   36  O   UNK N   1      26.258  52.196  61.903  0.00  0.00    -0.358 OA
HETATM   37  H   UNK N   1      25.631  51.995  62.611  0.00  0.00     0.218 HD
ENDBRANCH  31  36
ENDBRANCH   5  28
BRANCH   6  38
HETATM   38  C   UNK N   1      29.544  49.744  56.949  0.00  0.00     0.199 C 
BRANCH  38  39
HETATM   39  O   UNK N   1      28.659  49.222  55.996  0.00  0.00    -0.398 OA
HETATM   40  H   UNK N   1      29.158  48.508  55.521  0.00  0.00     0.209 HD
ENDBRANCH  38  39
ENDBRANCH   6  38
TORSDOF 9
ENDMDL
MODEL 6
REMARK VINA RESULT:      -5.6     16.714     21.785
REMARK  9 active torsions:
REMARK  status: ('A' for Active; 'I' for Inactive)
REMARK    1  A    between atoms: C_6  and  C_10 
REMARK    2  A    between atoms: C_7  and  O_8 
REMARK    3  A    between atoms: C_14  and  C_23 
REMARK    4  A    between atoms: C_15  and  C_20 
REMARK    5  A    between atoms: C_20  and  O_21 
REMARK    6  A    between atoms: C_25  and  O_26 
REMARK    7  A    between atoms: C_28  and  O_29 
REMARK    8  A    between atoms: C_34  and  O_35 
REMARK    9  A    between atoms: C_38  and  O_39 
ROOT
HETATM    1  C   UNK N   1      29.582  45.180  59.644  0.00  0.00    -0.023 A 
HETATM    2  C   UNK N   1      28.871  46.375  59.885  0.00  0.00     0.049 A 
HETATM    3  C   UNK N   1      29.019  47.472  59.037  0.00  0.00     0.103 A 
HETATM    4  O   UNK N   1      28.298  48.604  59.234  0.00  0.00    -0.336 OA
HETATM    5  C   UNK N   1      28.207  49.559  58.229  0.00  0.00     0.193 C 
HETATM    6  C   UNK N   1      29.616  49.767  57.620  0.00  0.00     0.186 C 
HETATM    7  O   UNK N   1      30.091  48.529  57.195  0.00  0.00    -0.338 OA
HETATM    8  C   UNK N   1      29.921  47.421  57.965  0.00  0.00     0.102 A 
HETATM    9  C   UNK N   1      30.629  46.249  57.705  0.00  0.00     0.040 A 
HETATM   10  C   UNK N   1      30.459  45.129  58.531  0.00  0.00     0.013 A 
ENDROOT
BRANCH   1  11
HETATM   11  C   UNK N   1      29.406  44.014  60.627  0.00  0.00     0.198 C 
HETATM   12  O   UNK N   1      30.258  42.981  60.271  0.00  0.00    -0.337 OA
HETATM   13  C   UNK N   1      31.593  43.022  60.509  0.00  0.00     0.089 A 
HETATM   14  C   UNK N   1      32.111  43.835  61.546  0.00  0.00     0.079 A 
HETATM   15  C   UNK N   1      32.441  42.247  59.716  0.00  0.00     0.074 A 
HETATM   16  C   UNK N   1      31.104  44.578  62.383  0.00  0.00     0.196 C 
HETATM   17  C   UNK N   1      33.527  43.862  61.748  0.00  0.00     0.085 A 
HETATM   18  O   UNK N   1      31.436  45.247  63.346  0.00  0.00    -0.289 OA
HETATM   19  C   UNK N   1      29.627  44.346  62.125  0.00  0.00     0.227 C 
HETATM   20  C   UNK N   1      34.355  43.080  60.928  0.00  0.00     0.074 A 
HETATM   21  C   UNK N   1      33.822  42.275  59.922  0.00  0.00     0.071 A 
BRANCH  19  22
HETATM   22  O   UNK N   1      29.163  43.304  62.948  0.00  0.00    -0.385 OA
HETATM   23  H   UNK N   1      29.884  42.628  63.040  0.00  0.00     0.210 HD
ENDBRANCH  19  22
BRANCH  17  24
HETATM   24  O   UNK N   1      34.132  44.605  62.703  0.00  0.00    -0.360 OA
HETATM   25  H   UNK N   1      34.008  44.510  63.650  0.00  0.00     0.217 HD
ENDBRANCH  17  24
BRANCH  21  26
HETATM   26  O   UNK N   1      34.647  41.533  59.155  0.00  0.00    -0.361 OA
HETATM   27  H   UNK N   1      35.609  41.583  59.241  0.00  0.00     0.217 HD
ENDBRANCH  21  26
ENDBRANCH   1  11
BRANCH   5  28
HETATM   28  C   UNK N   1      27.577  50.817  58.775  0.00  0.00    -0.024 A 
HETATM   29  C   UNK N   1      28.329  51.670  59.596  0.00  0.00     0.049 A 
HETATM   30  C   UNK N   1      27.765  52.854  60.113  0.00  0.00     0.101 A 
HETATM   31  C   UNK N   1      26.429  53.176  59.790  0.00  0.00     0.099 A 
HETATM   32  C   UNK N   1      25.684  52.322  58.967  0.00  0.00     0.040 A 
HETATM   33  C   UNK N   1      26.251  51.151  58.463  0.00  0.00     0.013 A 
BRANCH  30  34
HETATM   34  O   UNK N   1      28.476  53.693  60.917  0.00  0.00    -0.353 OA
HETATM   35  C   UNK N   1      28.701  53.501  62.267  0.00  0.00     0.210 C 
ENDBRANCH  30  34
BRANCH  31  36
HETATM   36  O   UNK N   1      25.849  54.301  60.260  0.00  0.00    -0.358 OA
HETATM   37  H   UNK N   1      26.076  55.181  59.928  0.00  0.00     0.218 HD
ENDBRANCH  31  36
ENDBRANCH   5  28
BRANCH   6  38
HETATM   38  C   UNK N   1      29.650  50.769  56.460  0.00  0.00     0.199 C 
BRANCH  38  39
HETATM   39  O   UNK N   1      29.591  50.096  55.233  0.00  0.00    -0.398 OA
HETATM   40  H   UNK N   1      29.348  50.780  54.556  0.00  0.00     0.209 HD
ENDBRANCH  38  39
ENDBRANCH   6  38
TORSDOF 9
ENDMDL
MODEL 7
REMARK VINA RESULT:      -5.5     16.115     20.904
REMARK  9 active torsions:
REMARK  status: ('A' for Active; 'I' for Inactive)
REMARK    1  A    between atoms: C_6  and  C_10 
REMARK    2  A    between atoms: C_7  and  O_8 
REMARK    3  A    between atoms: C_14  and  C_23 
REMARK    4  A    between atoms: C_15  and  C_20 
REMARK    5  A    between atoms: C_20  and  O_21 
REMARK    6  A    between atoms: C_25  and  O_26 
REMARK    7  A    between atoms: C_28  and  O_29 
REMARK    8  A    between atoms: C_34  and  O_35 
REMARK    9  A    between atoms: C_38  and  O_39 
ROOT
HETATM    1  C   UNK N   1      28.345  41.445  58.678  0.00  0.00    -0.023 A 
HETATM    2  C   UNK N   1      27.929  41.888  57.404  0.00  0.00     0.049 A 
HETATM    3  C   UNK N   1      27.709  40.976  56.373  0.00  0.00     0.103 A 
HETATM    4  O   UNK N   1      27.259  41.391  55.163  0.00  0.00    -0.336 OA
HETATM    5  C   UNK N   1      26.745  40.474  54.255  0.00  0.00     0.193 C 
HETATM    6  C   UNK N   1      27.676  39.235  54.227  0.00  0.00     0.186 C 
HETATM    7  O   UNK N   1      27.793  38.753  55.529  0.00  0.00    -0.338 OA
HETATM    8  C   UNK N   1      27.954  39.609  56.572  0.00  0.00     0.102 A 
HETATM    9  C   UNK N   1      28.360  39.150  57.824  0.00  0.00     0.040 A 
HETATM   10  C   UNK N   1      28.548  40.056  58.877  0.00  0.00     0.013 A 
ENDROOT
BRANCH   1  11
HETATM   11  C   UNK N   1      28.603  42.495  59.768  0.00  0.00     0.198 C 
HETATM   12  O   UNK N   1      29.828  42.244  60.366  0.00  0.00    -0.337 OA
HETATM   13  C   UNK N   1      31.007  42.536  59.761  0.00  0.00     0.089 A 
HETATM   14  C   UNK N   1      31.072  43.538  58.763  0.00  0.00     0.079 A 
HETATM   15  C   UNK N   1      32.151  41.833  60.144  0.00  0.00     0.074 A 
HETATM   16  C   UNK N   1      29.795  44.280  58.473  0.00  0.00     0.196 C 
HETATM   17  C   UNK N   1      32.333  43.797  58.139  0.00  0.00     0.085 A 
HETATM   18  O   UNK N   1      29.755  45.210  57.686  0.00  0.00    -0.289 OA
HETATM   19  C   UNK N   1      28.567  43.975  59.311  0.00  0.00     0.227 C 
HETATM   20  C   UNK N   1      33.463  43.067  58.538  0.00  0.00     0.074 A 
HETATM   21  C   UNK N   1      33.379  42.095  59.535  0.00  0.00     0.071 A 
BRANCH  19  22
HETATM   22  O   UNK N   1      28.523  44.846  60.415  0.00  0.00    -0.385 OA
HETATM   23  H   UNK N   1      27.757  44.588  60.992  0.00  0.00     0.210 HD
ENDBRANCH  19  22
BRANCH  17  24
HETATM   24  O   UNK N   1      32.511  44.726  57.171  0.00  0.00    -0.360 OA
HETATM   25  H   UNK N   1      32.297  44.615  56.242  0.00  0.00     0.217 HD
ENDBRANCH  17  24
BRANCH  21  26
HETATM   26  O   UNK N   1      34.486  41.414  59.897  0.00  0.00    -0.361 OA
HETATM   27  H   UNK N   1      35.069  41.001  59.245  0.00  0.00     0.217 HD
ENDBRANCH  21  26
ENDBRANCH   1  11
BRANCH   5  28
HETATM   28  C   UNK N   1      26.555  41.134  52.911  0.00  0.00    -0.024 A 
HETATM   29  C   UNK N   1      25.391  40.881  52.171  0.00  0.00     0.049 A 
HETATM   30  C   UNK N   1      25.188  41.490  50.916  0.00  0.00     0.101 A 
HETATM   31  C   UNK N   1      26.173  42.366  50.412  0.00  0.00     0.099 A 
HETATM   32  C   UNK N   1      27.332  42.617  51.156  0.00  0.00     0.040 A 
HETATM   33  C   UNK N   1      27.525  42.007  52.396  0.00  0.00     0.013 A 
BRANCH  30  34
HETATM   34  O   UNK N   1      24.067  41.253  50.180  0.00  0.00    -0.353 OA
HETATM   35  C   UNK N   1      23.975  40.348  49.139  0.00  0.00     0.210 C 
ENDBRANCH  30  34
BRANCH  31  36
HETATM   36  O   UNK N   1      26.020  42.974  49.216  0.00  0.00    -0.358 OA
HETATM   37  H   UNK N   1      25.250  43.521  49.006  0.00  0.00     0.218 HD
ENDBRANCH  31  36
ENDBRANCH   5  28
BRANCH   6  38
HETATM   38  C   UNK N   1      27.196  38.118  53.294  0.00  0.00     0.199 C 
BRANCH  38  39
HETATM   39  O   UNK N   1      28.262  37.277  52.950  0.00  0.00    -0.398 OA
HETATM   40  H   UNK N   1      27.865  36.382  52.788  0.00  0.00     0.209 HD
ENDBRANCH  38  39
ENDBRANCH   6  38
TORSDOF 9
ENDMDL
MODEL 8
REMARK VINA RESULT:      -5.4      2.123      3.643
REMARK  9 active torsions:
REMARK  status: ('A' for Active; 'I' for Inactive)
REMARK    1  A    between atoms: C_6  and  C_10 
REMARK    2  A    between atoms: C_7  and  O_8 
REMARK    3  A    between atoms: C_14  and  C_23 
REMARK    4  A    between atoms: C_15  and  C_20 
REMARK    5  A    between atoms: C_20  and  O_21 
REMARK    6  A    between atoms: C_25  and  O_26 
REMARK    7  A    between atoms: C_28  and  O_29 
REMARK    8  A    between atoms: C_34  and  O_35 
REMARK    9  A    between atoms: C_38  and  O_39 
ROOT
HETATM    1  C   UNK N   1      29.330  53.425  40.491  0.00  0.00    -0.023 A 
HETATM    2  C   UNK N   1      30.257  52.386  40.716  0.00  0.00     0.049 A 
HETATM    3  C   UNK N   1      31.111  52.423  41.818  0.00  0.00     0.103 A 
HETATM    4  O   UNK N   1      31.968  51.402  42.067  0.00  0.00    -0.336 OA
HETATM    5  C   UNK N   1      32.577  51.287  43.310  0.00  0.00     0.193 C 
HETATM    6  C   UNK N   1      33.072  52.689  43.746  0.00  0.00     0.186 C 
HETATM    7  O   UNK N   1      31.984  53.559  43.717  0.00  0.00    -0.338 OA
HETATM    8  C   UNK N   1      31.096  53.523  42.689  0.00  0.00     0.102 A 
HETATM    9  C   UNK N   1      30.183  54.556  42.489  0.00  0.00     0.040 A 
HETATM   10  C   UNK N   1      29.296  54.510  41.404  0.00  0.00     0.013 A 
ENDROOT
BRANCH   1  11
HETATM   11  C   UNK N   1      28.436  53.350  39.245  0.00  0.00     0.198 C 
HETATM   12  O   UNK N   1      27.122  53.602  39.607  0.00  0.00    -0.337 OA
HETATM   13  C   UNK N   1      26.671  54.848  39.895  0.00  0.00     0.089 A 
HETATM   14  C   UNK N   1      27.330  55.987  39.370  0.00  0.00     0.079 A 
HETATM   15  C   UNK N   1      25.548  54.985  40.712  0.00  0.00     0.074 A 
HETATM   16  C   UNK N   1      28.489  55.726  38.448  0.00  0.00     0.196 C 
HETATM   17  C   UNK N   1      26.830  57.282  39.717  0.00  0.00     0.085 A 
HETATM   18  O   UNK N   1      29.080  56.631  37.883  0.00  0.00    -0.289 OA
HETATM   19  C   UNK N   1      28.818  54.292  38.075  0.00  0.00     0.227 C 
HETATM   20  C   UNK N   1      25.705  57.387  40.549  0.00  0.00     0.074 A 
HETATM   21  C   UNK N   1      25.063  56.251  41.042  0.00  0.00     0.071 A 
BRANCH  19  22
HETATM   22  O   UNK N   1      28.132  53.942  36.898  0.00  0.00    -0.385 OA
HETATM   23  H   UNK N   1      27.985  52.961  36.897  0.00  0.00     0.210 HD
ENDBRANCH  19  22
BRANCH  17  24
HETATM   24  O   UNK N   1      27.382  58.437  39.280  0.00  0.00    -0.360 OA
HETATM   25  H   UNK N   1      28.287  58.548  38.978  0.00  0.00     0.217 HD
ENDBRANCH  17  24
BRANCH  21  26
HETATM   26  O   UNK N   1      23.982  56.389  41.836  0.00  0.00    -0.361 OA
HETATM   27  H   UNK N   1      23.165  55.893  41.680  0.00  0.00     0.217 HD
ENDBRANCH  21  26
ENDBRANCH   1  11
BRANCH   5  28
HETATM   28  C   UNK N   1      33.663  50.239  43.253  0.00  0.00    -0.024 A 
HETATM   29  C   UNK N   1      35.007  50.635  43.200  0.00  0.00     0.049 A 
HETATM   30  C   UNK N   1      36.039  49.675  43.152  0.00  0.00     0.101 A 
HETATM   31  C   UNK N   1      35.702  48.305  43.163  0.00  0.00     0.099 A 
HETATM   32  C   UNK N   1      34.358  47.916  43.218  0.00  0.00     0.040 A 
HETATM   33  C   UNK N   1      33.344  48.873  43.262  0.00  0.00     0.013 A 
BRANCH  30  34
HETATM   34  O   UNK N   1      37.351  50.038  43.096  0.00  0.00    -0.353 OA
HETATM   35  C   UNK N   1      38.139  49.999  41.960  0.00  0.00     0.210 C 
ENDBRANCH  30  34
BRANCH  31  36
HETATM   36  O   UNK N   1      36.657  47.351  43.121  0.00  0.00    -0.358 OA
HETATM   37  H   UNK N   1      36.616  46.551  43.662  0.00  0.00     0.218 HD
ENDBRANCH  31  36
ENDBRANCH   5  28
BRANCH   6  38
HETATM   38  C   UNK N   1      33.727  52.714  45.132  0.00  0.00     0.199 C 
BRANCH  38  39
HETATM   39  O   UNK N   1      33.758  54.021  45.634  0.00  0.00    -0.398 OA
HETATM   40  H   UNK N   1      34.636  54.121  46.084  0.00  0.00     0.209 HD
ENDBRANCH  38  39
ENDBRANCH   6  38
TORSDOF 9
ENDMDL
MODEL 9
REMARK VINA RESULT:      -5.4     16.763     21.669
REMARK  9 active torsions:
REMARK  status: ('A' for Active; 'I' for Inactive)
REMARK    1  A    between atoms: C_6  and  C_10 
REMARK    2  A    between atoms: C_7  and  O_8 
REMARK    3  A    between atoms: C_14  and  C_23 
REMARK    4  A    between atoms: C_15  and  C_20 
REMARK    5  A    between atoms: C_20  and  O_21 
REMARK    6  A    between atoms: C_25  and  O_26 
REMARK    7  A    between atoms: C_28  and  O_29 
REMARK    8  A    between atoms: C_34  and  O_35 
REMARK    9  A    between atoms: C_38  and  O_39 
ROOT
HETATM    1  C   UNK N   1      29.286  39.732  59.029  0.00  0.00    -0.023 A 
HETATM    2  C   UNK N   1      28.557  40.145  57.894  0.00  0.00     0.049 A 
HETATM    3  C   UNK N   1      28.508  39.347  56.752  0.00  0.00     0.103 A 
HETATM    4  O   UNK N   1      27.766  39.716  55.678  0.00  0.00    -0.336 OA
HETATM    5  C   UNK N   1      27.464  38.791  54.686  0.00  0.00     0.193 C 
HETATM    6  C   UNK N   1      28.745  37.983  54.361  0.00  0.00     0.186 C 
HETATM    7  O   UNK N   1      29.214  37.421  55.546  0.00  0.00    -0.338 OA
HETATM    8  C   UNK N   1      29.230  38.146  56.696  0.00  0.00     0.102 A 
HETATM    9  C   UNK N   1      29.951  37.715  57.809  0.00  0.00     0.040 A 
HETATM   10  C   UNK N   1      29.977  38.494  58.974  0.00  0.00     0.013 A 
ENDROOT
BRANCH   1  11
HETATM   11  C   UNK N   1      29.333  40.664  60.247  0.00  0.00     0.198 C 
HETATM   12  O   UNK N   1      30.643  41.052  60.478  0.00  0.00    -0.337 OA
HETATM   13  C   UNK N   1      31.277  41.973  59.709  0.00  0.00     0.089 A 
HETATM   14  C   UNK N   1      30.533  42.936  58.984  0.00  0.00     0.079 A 
HETATM   15  C   UNK N   1      32.671  41.954  59.650  0.00  0.00     0.074 A 
HETATM   16  C   UNK N   1      29.040  42.909  59.172  0.00  0.00     0.196 C 
HETATM   17  C   UNK N   1      31.243  43.874  58.171  0.00  0.00     0.085 A 
HETATM   18  O   UNK N   1      28.311  43.738  58.654  0.00  0.00    -0.289 OA
HETATM   19  C   UNK N   1      28.446  41.932  60.169  0.00  0.00     0.227 C 
HETATM   20  C   UNK N   1      32.644  43.823  58.124  0.00  0.00     0.074 A 
HETATM   21  C   UNK N   1      33.358  42.875  58.857  0.00  0.00     0.071 A 
BRANCH  19  22
HETATM   22  O   UNK N   1      28.337  42.553  61.427  0.00  0.00    -0.385 OA
HETATM   23  H   UNK N   1      27.379  42.746  61.603  0.00  0.00     0.210 HD
ENDBRANCH  19  22
BRANCH  17  24
HETATM   24  O   UNK N   1      30.637  44.832  57.433  0.00  0.00    -0.360 OA
HETATM   25  H   UNK N   1      29.696  45.022  57.424  0.00  0.00     0.217 HD
ENDBRANCH  17  24
BRANCH  21  26
HETATM   26  O   UNK N   1      34.705  42.858  58.792  0.00  0.00    -0.361 OA
HETATM   27  H   UNK N   1      35.188  42.135  58.367  0.00  0.00     0.217 HD
ENDBRANCH  21  26
ENDBRANCH   1  11
BRANCH   5  28
HETATM   28  C   UNK N   1      26.860  39.497  53.496  0.00  0.00    -0.024 A 
HETATM   29  C   UNK N   1      27.544  40.568  52.903  0.00  0.00     0.049 A 
HETATM   30  C   UNK N   1      27.003  41.239  51.788  0.00  0.00     0.101 A 
HETATM   31  C   UNK N   1      25.761  40.815  51.268  0.00  0.00     0.099 A 
HETATM   32  C   UNK N   1      25.084  39.744  51.863  0.00  0.00     0.040 A 
HETATM   33  C   UNK N   1      25.626  39.088  52.969  0.00  0.00     0.013 A 
BRANCH  30  34
HETATM   34  O   UNK N   1      27.650  42.284  51.200  0.00  0.00    -0.353 OA
HETATM   35  C   UNK N   1      28.567  43.107  51.828  0.00  0.00     0.210 C 
ENDBRANCH  30  34
BRANCH  31  36
HETATM   36  O   UNK N   1      25.207  41.427  50.199  0.00  0.00    -0.358 OA
HETATM   37  H   UNK N   1      25.075  40.976  49.353  0.00  0.00     0.218 HD
ENDBRANCH  31  36
ENDBRANCH   5  28
BRANCH   6  38
HETATM   38  C   UNK N   1      28.539  36.888  53.307  0.00  0.00     0.199 C 
BRANCH  38  39
HETATM   39  O   UNK N   1      27.625  35.932  53.769  0.00  0.00    -0.398 OA
HETATM   40  H   UNK N   1      27.827  35.097  53.273  0.00  0.00     0.209 HD
ENDBRANCH  38  39
ENDBRANCH   6  38
TORSDOF 9
ENDMDL
