MODEL 1
REMARK VINA RESULT:      -5.5      0.000      0.000
REMARK  7 active torsions:
REMARK  status: ('A' for Active; 'I' for Inactive)
REMARK    1  A    between atoms: C_3  and  O_4 
REMARK    2  A    between atoms: C_12  and  O_13 
REMARK    3  A    between atoms: C_15  and  C_16 
REMARK    4  A    between atoms: C_16  and  C_17 
REMARK    5  A    between atoms: C_17  and  C_18 
REMARK    6  A    between atoms: C_21  and  O_22 
REMARK    7  A    between atoms: C_26  and  O_27 
ROOT
HETATM    1  C   UNK N   1      28.893  41.426  57.238  0.00  0.00     0.011 C 
ENDROOT
BRANCH   1   2
HETATM    2  C   UNK N   1      30.179  42.008  57.926  0.00  0.00     0.030 C 
HETATM    3  C   UNK N   1      30.296  41.564  59.459  0.00  0.00    -0.011 C 
HETATM    4  C   UNK N   1      30.014  40.029  59.651  0.00  0.00     0.015 C 
HETATM    5  C   UNK N   1      29.284  42.397  60.363  0.00  0.00     0.131 C 
HETATM    6  C   UNK N   1      31.774  41.784  59.901  0.00  0.00     0.018 C 
HETATM    7  C   UNK N   1      30.136  39.410  61.064  0.00  0.00     0.035 C 
HETATM    8  C   UNK N   1      29.483  40.205  62.225  0.00  0.00     0.152 C 
HETATM    9  C   UNK N   1      28.108  40.893  61.866  0.00  0.00     0.080 C 
HETATM   10  O   UNK N   1      28.100  41.664  60.657  0.00  0.00    -0.372 OA
HETATM   11  C   UNK N   1      27.648  41.795  63.031  0.00  0.00     0.048 C 
HETATM   12  C   UNK N   1      27.043  39.792  61.684  0.00  0.00     0.048 C 
HETATM   13  C   UNK N   1      28.836  43.749  59.761  0.00  0.00     0.036 C 
HETATM   14  C   UNK N   1      29.999  44.406  59.041  0.00  0.00     0.040 C 
HETATM   15  C   UNK N   1      30.322  43.605  57.738  0.00  0.00     0.059 C 
HETATM   16  C   UNK N   1      31.735  43.968  57.227  0.00  0.00     0.046 C 
BRANCH   8  17
HETATM   17  O   UNK N   1      30.398  41.143  62.733  0.00  0.00    -0.393 OA
HETATM   18  H   UNK N   1      30.629  40.870  63.659  0.00  0.00     0.210 HD
ENDBRANCH   8  17
BRANCH  15  19
HETATM   19  O   UNK N   1      29.401  44.046  56.770  0.00  0.00    -0.390 OA
HETATM   20  H   UNK N   1      28.553  44.321  57.208  0.00  0.00     0.210 HD
ENDBRANCH  15  19
ENDBRANCH   1   2
BRANCH   1  21
HETATM   21  C   UNK N   1      29.137  40.421  56.085  0.00  0.00     0.042 C 
BRANCH  21  22
HETATM   22  C   UNK N   1      28.390  40.821  54.771  0.00  0.00     0.102 A 
HETATM   23  O   UNK N   1      28.397  42.208  54.599  0.00  0.00    -0.360 OA
HETATM   24  C   UNK N   1      29.222  41.498  53.677  0.00  0.00     0.116 A 
HETATM   25  C   UNK N   1      28.805  41.940  52.226  0.00  0.00     0.156 C 
HETATM   26  C   UNK N   1      30.709  41.829  53.972  0.00  0.00     0.052 C 
HETATM   27  C   UNK N   1      27.446  41.526  51.635  0.00  0.00     0.043 C 
HETATM   28  C   UNK N   1      26.171  41.827  52.432  0.00  0.00     0.027 C 
HETATM   29  C   UNK N   1      25.754  43.305  52.676  0.00  0.00     0.058 C 
HETATM   30  C   UNK N   1      25.925  41.080  53.778  0.00  0.00     0.003 C 
HETATM   31  C   UNK N   1      24.652  43.126  53.726  0.00  0.00     0.038 C 
HETATM   32  C   UNK N   1      25.266  44.009  51.400  0.00  0.00     0.046 C 
HETATM   33  C   UNK N   1      25.323  42.170  54.700  0.00  0.00     0.009 C 
HETATM   34  C   UNK N   1      26.999  40.126  54.442  0.00  0.00    -0.009 C 
HETATM   35  C   UNK N   1      26.317  39.589  55.739  0.00  0.00     0.018 C 
HETATM   36  C   UNK N   1      27.254  38.862  53.571  0.00  0.00     0.018 C 
BRANCH  25  37
HETATM   37  O   UNK N   1      29.002  43.320  51.998  0.00  0.00    -0.392 OA
HETATM   38  H   UNK N   1      28.191  43.732  51.603  0.00  0.00     0.210 HD
ENDBRANCH  25  37
BRANCH  29  39
HETATM   39  O   UNK N   1      26.814  44.036  53.241  0.00  0.00    -0.390 OA
HETATM   40  H   UNK N   1      26.971  44.839  52.676  0.00  0.00     0.210 HD
ENDBRANCH  29  39
ENDBRANCH  21  22
ENDBRANCH   1  21
TORSDOF 7
ENDMDL
MODEL 2
REMARK VINA RESULT:      -5.2     19.678     23.545
REMARK  7 active torsions:
REMARK  status: ('A' for Active; 'I' for Inactive)
REMARK    1  A    between atoms: C_3  and  O_4 
REMARK    2  A    between atoms: C_12  and  O_13 
REMARK    3  A    between atoms: C_15  and  C_16 
REMARK    4  A    between atoms: C_16  and  C_17 
REMARK    5  A    between atoms: C_17  and  C_18 
REMARK    6  A    between atoms: C_21  and  O_22 
REMARK    7  A    between atoms: C_26  and  O_27 
ROOT
HETATM    1  C   UNK N   1      46.977  52.475  61.104  0.00  0.00     0.011 C 
ENDROOT
BRANCH   1   2
HETATM    2  C   UNK N   1      46.766  51.260  62.076  0.00  0.00     0.030 C 
HETATM    3  C   UNK N   1      48.084  50.362  62.215  0.00  0.00    -0.011 C 
HETATM    4  C   UNK N   1      49.372  51.237  62.431  0.00  0.00     0.015 C 
HETATM    5  C   UNK N   1      48.282  49.454  60.922  0.00  0.00     0.131 C 
HETATM    6  C   UNK N   1      47.932  49.499  63.504  0.00  0.00     0.018 C 
HETATM    7  C   UNK N   1      50.735  50.534  62.641  0.00  0.00     0.035 C 
HETATM    8  C   UNK N   1      51.062  49.362  61.680  0.00  0.00     0.152 C 
HETATM    9  C   UNK N   1      50.594  49.578  60.187  0.00  0.00     0.080 C 
HETATM   10  O   UNK N   1      49.235  50.005  60.021  0.00  0.00    -0.372 OA
HETATM   11  C   UNK N   1      50.810  48.285  59.373  0.00  0.00     0.048 C 
HETATM   12  C   UNK N   1      51.473  50.676  59.554  0.00  0.00     0.048 C 
HETATM   13  C   UNK N   1      46.994  49.193  60.107  0.00  0.00     0.036 C 
HETATM   14  C   UNK N   1      45.816  49.011  61.045  0.00  0.00     0.040 C 
HETATM   15  C   UNK N   1      45.463  50.382  61.708  0.00  0.00     0.059 C 
HETATM   16  C   UNK N   1      44.586  50.156  62.962  0.00  0.00     0.046 C 
BRANCH   8  17
HETATM   17  O   UNK N   1      50.546  48.163  62.199  0.00  0.00    -0.393 OA
HETATM   18  H   UNK N   1      49.684  47.981  61.742  0.00  0.00     0.210 HD
ENDBRANCH   8  17
BRANCH  15  19
HETATM   19  O   UNK N   1      44.679  51.080  60.770  0.00  0.00    -0.390 OA
HETATM   20  H   UNK N   1      45.189  51.852  60.409  0.00  0.00     0.210 HD
ENDBRANCH  15  19
ENDBRANCH   1   2
BRANCH   1  21
HETATM   21  C   UNK N   1      47.226  53.847  61.779  0.00  0.00     0.042 C 
BRANCH  21  22
HETATM   22  C   UNK N   1      47.599  54.963  60.749  0.00  0.00     0.102 A 
HETATM   23  O   UNK N   1      46.882  54.803  59.561  0.00  0.00    -0.360 OA
HETATM   24  C   UNK N   1      46.485  55.931  60.338  0.00  0.00     0.116 A 
HETATM   25  C   UNK N   1      46.548  57.197  59.406  0.00  0.00     0.156 C 
HETATM   26  C   UNK N   1      45.053  55.690  60.883  0.00  0.00     0.052 C 
HETATM   27  C   UNK N   1      47.897  57.755  58.922  0.00  0.00     0.043 C 
HETATM   28  C   UNK N   1      48.882  56.807  58.226  0.00  0.00     0.027 C 
HETATM   29  C   UNK N   1      48.504  56.187  56.852  0.00  0.00     0.058 C 
HETATM   30  C   UNK N   1      49.540  55.660  59.052  0.00  0.00     0.003 C 
HETATM   31  C   UNK N   1      49.596  55.121  56.703  0.00  0.00     0.038 C 
HETATM   32  C   UNK N   1      48.503  57.215  55.710  0.00  0.00     0.046 C 
HETATM   33  C   UNK N   1      49.552  54.460  58.072  0.00  0.00     0.009 C 
HETATM   34  C   UNK N   1      49.133  55.332  60.546  0.00  0.00    -0.009 C 
HETATM   35  C   UNK N   1      50.056  54.146  60.967  0.00  0.00     0.018 C 
HETATM   36  C   UNK N   1      49.509  56.494  61.508  0.00  0.00     0.018 C 
BRANCH  25  37
HETATM   37  O   UNK N   1      45.667  57.108  58.305  0.00  0.00    -0.392 OA
HETATM   38  H   UNK N   1      46.054  56.542  57.589  0.00  0.00     0.210 HD
ENDBRANCH  25  37
BRANCH  29  39
HETATM   39  O   UNK N   1      47.250  55.554  56.916  0.00  0.00    -0.390 OA
HETATM   40  H   UNK N   1      47.026  55.219  56.008  0.00  0.00     0.210 HD
ENDBRANCH  29  39
ENDBRANCH  21  22
ENDBRANCH   1  21
TORSDOF 7
ENDMDL
MODEL 3
REMARK VINA RESULT:      -5.0      2.390      3.452
REMARK  7 active torsions:
REMARK  status: ('A' for Active; 'I' for Inactive)
REMARK    1  A    between atoms: C_3  and  O_4 
REMARK    2  A    between atoms: C_12  and  O_13 
REMARK    3  A    between atoms: C_15  and  C_16 
REMARK    4  A    between atoms: C_16  and  C_17 
REMARK    5  A    between atoms: C_17  and  C_18 
REMARK    6  A    between atoms: C_21  and  O_22 
REMARK    7  A    between atoms: C_26  and  O_27 
ROOT
HETATM    1  C   UNK N   1      29.459  43.100  56.691  0.00  0.00     0.011 C 
ENDROOT
BRANCH   1   2
HETATM    2  C   UNK N   1      30.296  43.214  58.014  0.00  0.00     0.030 C 
HETATM    3  C   UNK N   1      29.629  44.219  59.066  0.00  0.00    -0.011 C 
HETATM    4  C   UNK N   1      28.084  43.973  59.216  0.00  0.00     0.015 C 
HETATM    5  C   UNK N   1      29.876  45.731  58.632  0.00  0.00     0.131 C 
HETATM    6  C   UNK N   1      30.248  43.916  60.464  0.00  0.00     0.018 C 
HETATM    7  C   UNK N   1      27.280  44.819  60.234  0.00  0.00     0.035 C 
HETATM    8  C   UNK N   1      27.564  46.343  60.241  0.00  0.00     0.152 C 
HETATM    9  C   UNK N   1      27.801  46.980  58.815  0.00  0.00     0.080 C 
HETATM   10  O   UNK N   1      28.743  46.293  57.981  0.00  0.00    -0.372 OA
HETATM   11  C   UNK N   1      28.248  48.451  58.960  0.00  0.00     0.048 C 
HETATM   12  C   UNK N   1      26.462  46.977  58.050  0.00  0.00     0.048 C 
HETATM   13  C   UNK N   1      31.086  45.948  57.693  0.00  0.00     0.036 C 
HETATM   14  C   UNK N   1      32.225  45.031  58.096  0.00  0.00     0.040 C 
HETATM   15  C   UNK N   1      31.851  43.554  57.745  0.00  0.00     0.059 C 
HETATM   16  C   UNK N   1      32.765  42.576  58.518  0.00  0.00     0.046 C 
BRANCH   8  17
HETATM   17  O   UNK N   1      28.639  46.624  61.101  0.00  0.00    -0.393 OA
HETATM   18  H   UNK N   1      28.272  46.742  62.016  0.00  0.00     0.210 HD
ENDBRANCH   8  17
BRANCH  15  19
HETATM   19  O   UNK N   1      32.133  43.394  56.374  0.00  0.00    -0.390 OA
HETATM   20  H   UNK N   1      31.518  42.723  55.977  0.00  0.00     0.210 HD
ENDBRANCH  15  19
ENDBRANCH   1   2
BRANCH   1  21
HETATM   21  C   UNK N   1      29.062  41.665  56.263  0.00  0.00     0.042 C 
BRANCH  21  22
HETATM   22  C   UNK N   1      28.151  41.649  54.991  0.00  0.00     0.102 A 
HETATM   23  O   UNK N   1      28.308  42.825  54.254  0.00  0.00    -0.360 OA
HETATM   24  C   UNK N   1      28.856  41.665  53.631  0.00  0.00     0.116 A 
HETATM   25  C   UNK N   1      28.247  41.569  52.183  0.00  0.00     0.156 C 
HETATM   26  C   UNK N   1      30.402  41.794  53.596  0.00  0.00     0.052 C 
HETATM   27  C   UNK N   1      26.763  41.224  51.973  0.00  0.00     0.043 C 
HETATM   28  C   UNK N   1      25.701  42.054  52.703  0.00  0.00     0.027 C 
HETATM   29  C   UNK N   1      25.529  43.558  52.348  0.00  0.00     0.058 C 
HETATM   30  C   UNK N   1      25.603  41.962  54.256  0.00  0.00     0.003 C 
HETATM   31  C   UNK N   1      24.618  44.024  53.489  0.00  0.00     0.038 C 
HETATM   32  C   UNK N   1      24.917  43.780  50.956  0.00  0.00     0.046 C 
HETATM   33  C   UNK N   1      25.322  43.421  54.695  0.00  0.00     0.009 C 
HETATM   34  C   UNK N   1      26.645  41.161  55.138  0.00  0.00    -0.009 C 
HETATM   35  C   UNK N   1      26.142  41.322  56.606  0.00  0.00     0.018 C 
HETATM   36  C   UNK N   1      26.575  39.633  54.856  0.00  0.00     0.018 C 
BRANCH  25  37
HETATM   37  O   UNK N   1      28.578  42.681  51.377  0.00  0.00    -0.392 OA
HETATM   38  H   UNK N   1      29.290  42.448  50.729  0.00  0.00     0.210 HD
ENDBRANCH  25  37
BRANCH  29  39
HETATM   39  O   UNK N   1      26.758  44.235  52.435  0.00  0.00    -0.390 OA
HETATM   40  H   UNK N   1      26.908  44.715  51.578  0.00  0.00     0.210 HD
ENDBRANCH  29  39
ENDBRANCH  21  22
ENDBRANCH   1  21
TORSDOF 7
ENDMDL
MODEL 4
REMARK VINA RESULT:      -5.0      2.459      7.011
REMARK  7 active torsions:
REMARK  status: ('A' for Active; 'I' for Inactive)
REMARK    1  A    between atoms: C_3  and  O_4 
REMARK    2  A    between atoms: C_12  and  O_13 
REMARK    3  A    between atoms: C_15  and  C_16 
REMARK    4  A    between atoms: C_16  and  C_17 
REMARK    5  A    between atoms: C_17  and  C_18 
REMARK    6  A    between atoms: C_21  and  O_22 
REMARK    7  A    between atoms: C_26  and  O_27 
ROOT
HETATM    1  C   UNK N   1      29.287  41.193  57.533  0.00  0.00     0.011 C 
ENDROOT
BRANCH   1   2
HETATM    2  C   UNK N   1      27.840  41.163  56.924  0.00  0.00     0.030 C 
HETATM    3  C   UNK N   1      27.422  39.698  56.432  0.00  0.00    -0.011 C 
HETATM    4  C   UNK N   1      27.772  38.597  57.499  0.00  0.00     0.015 C 
HETATM    5  C   UNK N   1      28.143  39.340  55.059  0.00  0.00     0.131 C 
HETATM    6  C   UNK N   1      25.871  39.675  56.288  0.00  0.00     0.018 C 
HETATM    7  C   UNK N   1      27.389  37.124  57.217  0.00  0.00     0.035 C 
HETATM    8  C   UNK N   1      27.708  36.588  55.798  0.00  0.00     0.152 C 
HETATM    9  C   UNK N   1      29.071  37.098  55.186  0.00  0.00     0.080 C 
HETATM   10  O   UNK N   1      29.286  38.515  55.252  0.00  0.00    -0.372 OA
HETATM   11  C   UNK N   1      29.193  36.648  53.715  0.00  0.00     0.048 C 
HETATM   12  C   UNK N   1      30.231  36.448  55.968  0.00  0.00     0.048 C 
HETATM   13  C   UNK N   1      28.608  40.561  54.231  0.00  0.00     0.036 C 
HETATM   14  C   UNK N   1      27.585  41.677  54.335  0.00  0.00     0.040 C 
HETATM   15  C   UNK N   1      27.619  42.278  55.778  0.00  0.00     0.059 C 
HETATM   16  C   UNK N   1      26.330  43.088  56.047  0.00  0.00     0.046 C 
BRANCH   8  17
HETATM   17  O   UNK N   1      26.634  36.864  54.933  0.00  0.00    -0.393 OA
HETATM   18  H   UNK N   1      26.054  36.058  54.905  0.00  0.00     0.210 HD
ENDBRANCH   8  17
BRANCH  15  19
HETATM   19  O   UNK N   1      28.695  43.187  55.798  0.00  0.00    -0.390 OA
HETATM   20  H   UNK N   1      29.352  42.919  56.493  0.00  0.00     0.210 HD
ENDBRANCH  15  19
ENDBRANCH   1   2
BRANCH   1  21
HETATM   21  C   UNK N   1      29.373  41.434  59.061  0.00  0.00     0.042 C 
BRANCH  21  22
HETATM   22  C   UNK N   1      29.503  42.949  59.423  0.00  0.00     0.102 A 
HETATM   23  O   UNK N   1      28.671  43.726  58.614  0.00  0.00    -0.360 OA
HETATM   24  C   UNK N   1      28.253  43.643  59.975  0.00  0.00     0.116 A 
HETATM   25  C   UNK N   1      28.073  45.111  60.510  0.00  0.00     0.156 C 
HETATM   26  C   UNK N   1      26.929  42.838  60.048  0.00  0.00     0.052 C 
HETATM   27  C   UNK N   1      29.289  46.025  60.732  0.00  0.00     0.043 C 
HETATM   28  C   UNK N   1      30.278  46.233  59.578  0.00  0.00     0.027 C 
HETATM   29  C   UNK N   1      29.807  46.965  58.290  0.00  0.00     0.058 C 
HETATM   30  C   UNK N   1      31.145  45.030  59.098  0.00  0.00     0.003 C 
HETATM   31  C   UNK N   1      30.978  46.676  57.345  0.00  0.00     0.038 C 
HETATM   32  C   UNK N   1      29.563  48.467  58.509  0.00  0.00     0.046 C 
HETATM   33  C   UNK N   1      31.166  45.182  57.557  0.00  0.00     0.009 C 
HETATM   34  C   UNK N   1      30.955  43.558  59.648  0.00  0.00    -0.009 C 
HETATM   35  C   UNK N   1      32.041  42.708  58.916  0.00  0.00     0.018 C 
HETATM   36  C   UNK N   1      31.320  43.461  61.157  0.00  0.00     0.018 C 
BRANCH  25  37
HETATM   37  O   UNK N   1      27.082  45.830  59.804  0.00  0.00    -0.392 OA
HETATM   38  H   UNK N   1      27.201  46.807  59.925  0.00  0.00     0.210 HD
ENDBRANCH  25  37
BRANCH  29  39
HETATM   39  O   UNK N   1      28.642  46.370  57.774  0.00  0.00    -0.390 OA
HETATM   40  H   UNK N   1      27.935  46.421  58.470  0.00  0.00     0.210 HD
ENDBRANCH  29  39
ENDBRANCH  21  22
ENDBRANCH   1  21
TORSDOF 7
ENDMDL
MODEL 5
REMARK VINA RESULT:      -4.9     19.748     23.821
REMARK  7 active torsions:
REMARK  status: ('A' for Active; 'I' for Inactive)
REMARK    1  A    between atoms: C_3  and  O_4 
REMARK    2  A    between atoms: C_12  and  O_13 
REMARK    3  A    between atoms: C_15  and  C_16 
REMARK    4  A    between atoms: C_16  and  C_17 
REMARK    5  A    between atoms: C_17  and  C_18 
REMARK    6  A    between atoms: C_21  and  O_22 
REMARK    7  A    between atoms: C_26  and  O_27 
ROOT
HETATM    1  C   UNK N   1      49.716  50.573  59.226  0.00  0.00     0.011 C 
ENDROOT
BRANCH   1   2
HETATM    2  C   UNK N   1      51.188  51.099  59.081  0.00  0.00     0.030 C 
HETATM    3  C   UNK N   1      51.245  52.686  58.879  0.00  0.00    -0.011 C 
HETATM    4  C   UNK N   1      50.311  53.442  59.894  0.00  0.00     0.015 C 
HETATM    5  C   UNK N   1      50.825  53.078  57.394  0.00  0.00     0.131 C 
HETATM    6  C   UNK N   1      52.696  53.150  59.206  0.00  0.00     0.018 C 
HETATM    7  C   UNK N   1      50.280  54.989  59.881  0.00  0.00     0.035 C 
HETATM    8  C   UNK N   1      50.186  55.667  58.490  0.00  0.00     0.152 C 
HETATM    9  C   UNK N   1      49.251  54.928  57.454  0.00  0.00     0.080 C 
HETATM   10  O   UNK N   1      49.474  53.518  57.317  0.00  0.00    -0.372 OA
HETATM   11  C   UNK N   1      49.377  55.586  56.064  0.00  0.00     0.048 C 
HETATM   12  C   UNK N   1      47.787  55.091  57.914  0.00  0.00     0.048 C 
HETATM   13  C   UNK N   1      50.988  51.947  56.352  0.00  0.00     0.036 C 
HETATM   14  C   UNK N   1      52.242  51.146  56.649  0.00  0.00     0.040 C 
HETATM   15  C   UNK N   1      52.027  50.309  57.951  0.00  0.00     0.059 C 
HETATM   16  C   UNK N   1      53.390  49.840  58.513  0.00  0.00     0.046 C 
BRANCH   8  17
HETATM   17  O   UNK N   1      51.475  55.849  57.962  0.00  0.00    -0.393 OA
HETATM   18  H   UNK N   1      51.388  56.381  57.127  0.00  0.00     0.210 HD
ENDBRANCH   8  17
BRANCH  15  19
HETATM   19  O   UNK N   1      51.317  49.157  57.562  0.00  0.00    -0.390 OA
HETATM   20  H   UNK N   1      50.504  49.054  58.123  0.00  0.00     0.210 HD
ENDBRANCH  15  19
ENDBRANCH   1   2
BRANCH   1  21
HETATM   21  C   UNK N   1      49.471  49.552  60.365  0.00  0.00     0.042 C 
BRANCH  21  22
HETATM   22  C   UNK N   1      48.223  49.912  61.236  0.00  0.00     0.102 A 
HETATM   23  O   UNK N   1      47.256  50.569  60.471  0.00  0.00    -0.360 OA
HETATM   24  C   UNK N   1      46.896  49.245  60.861  0.00  0.00     0.116 A 
HETATM   25  C   UNK N   1      45.496  49.322  61.575  0.00  0.00     0.156 C 
HETATM   26  C   UNK N   1      46.849  48.342  59.600  0.00  0.00     0.052 C 
HETATM   27  C   UNK N   1      45.350  49.982  62.956  0.00  0.00     0.043 C 
HETATM   28  C   UNK N   1      45.879  51.407  63.154  0.00  0.00     0.027 C 
HETATM   29  C   UNK N   1      45.215  52.583  62.385  0.00  0.00     0.058 C 
HETATM   30  C   UNK N   1      47.416  51.660  63.087  0.00  0.00     0.003 C 
HETATM   31  C   UNK N   1      46.224  53.707  62.643  0.00  0.00     0.038 C 
HETATM   32  C   UNK N   1      43.802  52.910  62.893  0.00  0.00     0.046 C 
HETATM   33  C   UNK N   1      47.535  53.005  62.328  0.00  0.00     0.009 C 
HETATM   34  C   UNK N   1      48.456  50.539  62.679  0.00  0.00    -0.009 C 
HETATM   35  C   UNK N   1      49.853  51.228  62.774  0.00  0.00     0.018 C 
HETATM   36  C   UNK N   1      48.501  49.394  63.731  0.00  0.00     0.018 C 
BRANCH  25  37
HETATM   37  O   UNK N   1      44.477  49.807  60.725  0.00  0.00    -0.392 OA
HETATM   38  H   UNK N   1      44.682  50.727  60.418  0.00  0.00     0.210 HD
ENDBRANCH  25  37
BRANCH  29  39
HETATM   39  O   UNK N   1      45.168  52.315  61.005  0.00  0.00    -0.390 OA
HETATM   40  H   UNK N   1      44.926  53.156  60.535  0.00  0.00     0.210 HD
ENDBRANCH  29  39
ENDBRANCH  21  22
ENDBRANCH   1  21
TORSDOF 7
ENDMDL
MODEL 6
REMARK VINA RESULT:      -4.9      1.554      3.537
REMARK  7 active torsions:
REMARK  status: ('A' for Active; 'I' for Inactive)
REMARK    1  A    between atoms: C_3  and  O_4 
REMARK    2  A    between atoms: C_12  and  O_13 
REMARK    3  A    between atoms: C_15  and  C_16 
REMARK    4  A    between atoms: C_16  and  C_17 
REMARK    5  A    between atoms: C_17  and  C_18 
REMARK    6  A    between atoms: C_21  and  O_22 
REMARK    7  A    between atoms: C_26  and  O_27 
ROOT
HETATM    1  C   UNK N   1      29.473  41.510  56.933  0.00  0.00     0.011 C 
ENDROOT
BRANCH   1   2
HETATM    2  C   UNK N   1      28.413  41.414  58.087  0.00  0.00     0.030 C 
HETATM    3  C   UNK N   1      28.024  42.853  58.671  0.00  0.00    -0.011 C 
HETATM    4  C   UNK N   1      27.745  43.895  57.528  0.00  0.00     0.015 C 
HETATM    5  C   UNK N   1      29.183  43.408  59.611  0.00  0.00     0.131 C 
HETATM    6  C   UNK N   1      26.681  42.699  59.446  0.00  0.00     0.018 C 
HETATM    7  C   UNK N   1      27.301  45.329  57.906  0.00  0.00     0.035 C 
HETATM    8  C   UNK N   1      28.089  46.016  59.050  0.00  0.00     0.152 C 
HETATM    9  C   UNK N   1      29.642  45.728  59.053  0.00  0.00     0.080 C 
HETATM   10  O   UNK N   1      30.014  44.348  58.939  0.00  0.00    -0.372 OA
HETATM   11  C   UNK N   1      30.286  46.311  60.329  0.00  0.00     0.048 C 
HETATM   12  C   UNK N   1      30.274  46.448  57.844  0.00  0.00     0.048 C 
HETATM   13  C   UNK N   1      30.117  42.326  60.201  0.00  0.00     0.036 C 
HETATM   14  C   UNK N   1      29.314  41.089  60.559  0.00  0.00     0.040 C 
HETATM   15  C   UNK N   1      28.844  40.379  59.249  0.00  0.00     0.059 C 
HETATM   16  C   UNK N   1      27.689  39.399  59.561  0.00  0.00     0.046 C 
BRANCH   8  17
HETATM   17  O   UNK N   1      27.515  45.685  60.290  0.00  0.00    -0.393 OA
HETATM   18  H   UNK N   1      28.239  45.341  60.877  0.00  0.00     0.210 HD
ENDBRANCH   8  17
BRANCH  15  19
HETATM   19  O   UNK N   1      29.937  39.610  58.807  0.00  0.00    -0.390 OA
HETATM   20  H   UNK N   1      29.724  38.642  58.883  0.00  0.00     0.210 HD
ENDBRANCH  15  19
ENDBRANCH   1   2
BRANCH   1  21
HETATM   21  C   UNK N   1      29.375  40.424  55.832  0.00  0.00     0.042 C 
BRANCH  21  22
HETATM   22  C   UNK N   1      28.512  40.882  54.612  0.00  0.00     0.102 A 
HETATM   23  O   UNK N   1      28.517  42.274  54.494  0.00  0.00    -0.360 OA
HETATM   24  C   UNK N   1      29.243  41.597  53.471  0.00  0.00     0.116 A 
HETATM   25  C   UNK N   1      28.694  42.099  52.084  0.00  0.00     0.156 C 
HETATM   26  C   UNK N   1      30.755  41.905  53.636  0.00  0.00     0.052 C 
HETATM   27  C   UNK N   1      27.282  41.717  51.610  0.00  0.00     0.043 C 
HETATM   28  C   UNK N   1      26.091  41.996  52.536  0.00  0.00     0.027 C 
HETATM   29  C   UNK N   1      25.715  43.465  52.877  0.00  0.00     0.058 C 
HETATM   30  C   UNK N   1      25.966  41.197  53.869  0.00  0.00     0.003 C 
HETATM   31  C   UNK N   1      24.716  43.252  54.019  0.00  0.00     0.038 C 
HETATM   32  C   UNK N   1      25.115  44.223  51.682  0.00  0.00     0.046 C 
HETATM   33  C   UNK N   1      25.466  42.253  54.886  0.00  0.00     0.009 C 
HETATM   34  C   UNK N   1      27.088  40.209  54.389  0.00  0.00    -0.009 C 
HETATM   35  C   UNK N   1      26.527  39.626  55.724  0.00  0.00     0.018 C 
HETATM   36  C   UNK N   1      27.246  38.980  53.450  0.00  0.00     0.018 C 
BRANCH  25  37
HETATM   37  O   UNK N   1      28.883  43.486  51.893  0.00  0.00    -0.392 OA
HETATM   38  H   UNK N   1      28.517  44.000  52.657  0.00  0.00     0.210 HD
ENDBRANCH  25  37
BRANCH  29  39
HETATM   39  O   UNK N   1      26.831  44.166  53.366  0.00  0.00    -0.390 OA
HETATM   40  H   UNK N   1      27.310  43.577  54.007  0.00  0.00     0.210 HD
ENDBRANCH  29  39
ENDBRANCH  21  22
ENDBRANCH   1  21
TORSDOF 7
ENDMDL
MODEL 7
REMARK VINA RESULT:      -4.9     20.808     24.459
REMARK  7 active torsions:
REMARK  status: ('A' for Active; 'I' for Inactive)
REMARK    1  A    between atoms: C_3  and  O_4 
REMARK    2  A    between atoms: C_12  and  O_13 
REMARK    3  A    between atoms: C_15  and  C_16 
REMARK    4  A    between atoms: C_16  and  C_17 
REMARK    5  A    between atoms: C_17  and  C_18 
REMARK    6  A    between atoms: C_21  and  O_22 
REMARK    7  A    between atoms: C_26  and  O_27 
ROOT
HETATM    1  C   UNK N   1      48.681  52.579  60.077  0.00  0.00     0.011 C 
ENDROOT
BRANCH   1   2
HETATM    2  C   UNK N   1      48.294  51.783  61.375  0.00  0.00     0.030 C 
HETATM    3  C   UNK N   1      49.331  50.605  61.692  0.00  0.00    -0.011 C 
HETATM    4  C   UNK N   1      50.823  51.085  61.564  0.00  0.00     0.015 C 
HETATM    5  C   UNK N   1      49.095  49.372  60.714  0.00  0.00     0.131 C 
HETATM    6  C   UNK N   1      49.140  50.199  63.184  0.00  0.00     0.018 C 
HETATM    7  C   UNK N   1      51.965  50.091  61.888  0.00  0.00     0.035 C 
HETATM    8  C   UNK N   1      51.828  48.665  61.297  0.00  0.00     0.152 C 
HETATM    9  C   UNK N   1      51.227  48.607  59.837  0.00  0.00     0.080 C 
HETATM   10  O   UNK N   1      50.022  49.357  59.635  0.00  0.00    -0.372 OA
HETATM   11  C   UNK N   1      50.972  47.140  59.428  0.00  0.00     0.048 C 
HETATM   12  C   UNK N   1      52.268  49.187  58.858  0.00  0.00     0.048 C 
HETATM   13  C   UNK N   1      47.681  49.298  60.090  0.00  0.00     0.036 C 
HETATM   14  C   UNK N   1      46.642  49.727  61.110  0.00  0.00     0.040 C 
HETATM   15  C   UNK N   1      46.766  51.265  61.360  0.00  0.00     0.059 C 
HETATM   16  C   UNK N   1      46.048  51.649  62.675  0.00  0.00     0.046 C 
BRANCH   8  17
HETATM   17  O   UNK N   1      51.090  47.854  62.176  0.00  0.00    -0.393 OA
HETATM   18  H   UNK N   1      51.306  48.138  63.103  0.00  0.00     0.210 HD
ENDBRANCH   8  17
BRANCH  15  19
HETATM   19  O   UNK N   1      46.071  51.890  60.306  0.00  0.00    -0.390 OA
HETATM   20  H   UNK N   1      45.316  51.316  60.012  0.00  0.00     0.210 HD
ENDBRANCH  15  19
ENDBRANCH   1   2
BRANCH   1  21
HETATM   21  C   UNK N   1      49.169  54.033  60.295  0.00  0.00     0.042 C 
BRANCH  21  22
HETATM   22  C   UNK N   1      49.675  54.700  58.974  0.00  0.00     0.102 A 
HETATM   23  O   UNK N   1      48.904  54.290  57.883  0.00  0.00    -0.360 OA
HETATM   24  C   UNK N   1      48.709  55.651  58.260  0.00  0.00     0.116 A 
HETATM   25  C   UNK N   1      48.934  56.537  56.980  0.00  0.00     0.156 C 
HETATM   26  C   UNK N   1      47.275  55.817  58.828  0.00  0.00     0.052 C 
HETATM   27  C   UNK N   1      50.337  56.700  56.370  0.00  0.00     0.043 C 
HETATM   28  C   UNK N   1      51.142  55.441  56.024  0.00  0.00     0.027 C 
HETATM   29  C   UNK N   1      50.631  54.490  54.906  0.00  0.00     0.058 C 
HETATM   30  C   UNK N   1      51.644  54.522  57.178  0.00  0.00     0.003 C 
HETATM   31  C   UNK N   1      51.542  53.276  55.118  0.00  0.00     0.038 C 
HETATM   32  C   UNK N   1      50.750  55.097  53.500  0.00  0.00     0.046 C 
HETATM   33  C   UNK N   1      51.441  53.090  56.624  0.00  0.00     0.009 C 
HETATM   34  C   UNK N   1      51.239  54.744  58.692  0.00  0.00    -0.009 C 
HETATM   35  C   UNK N   1      51.984  53.621  59.480  0.00  0.00     0.018 C 
HETATM   36  C   UNK N   1      51.820  56.075  59.248  0.00  0.00     0.018 C 
BRANCH  25  37
HETATM   37  O   UNK N   1      48.016  56.246  55.947  0.00  0.00    -0.392 OA
HETATM   38  H   UNK N   1      48.402  55.600  55.302  0.00  0.00     0.210 HD
ENDBRANCH  25  37
BRANCH  29  39
HETATM   39  O   UNK N   1      49.297  54.111  55.143  0.00  0.00    -0.390 OA
HETATM   40  H   UNK N   1      48.879  54.801  55.723  0.00  0.00     0.210 HD
ENDBRANCH  29  39
ENDBRANCH  21  22
ENDBRANCH   1  21
TORSDOF 7
ENDMDL
MODEL 8
REMARK VINA RESULT:      -4.8      1.903      3.634
REMARK  7 active torsions:
REMARK  status: ('A' for Active; 'I' for Inactive)
REMARK    1  A    between atoms: C_3  and  O_4 
REMARK    2  A    between atoms: C_12  and  O_13 
REMARK    3  A    between atoms: C_15  and  C_16 
REMARK    4  A    between atoms: C_16  and  C_17 
REMARK    5  A    between atoms: C_17  and  C_18 
REMARK    6  A    between atoms: C_21  and  O_22 
REMARK    7  A    between atoms: C_26  and  O_27 
ROOT
HETATM    1  C   UNK N   1      28.462  43.124  57.361  0.00  0.00     0.011 C 
ENDROOT
BRANCH   1   2
HETATM    2  C   UNK N   1      29.921  43.487  57.812  0.00  0.00     0.030 C 
HETATM    3  C   UNK N   1      30.424  42.570  59.024  0.00  0.00    -0.011 C 
HETATM    4  C   UNK N   1      30.107  41.049  58.782  0.00  0.00     0.015 C 
HETATM    5  C   UNK N   1      29.752  43.031  60.392  0.00  0.00     0.131 C 
HETATM    6  C   UNK N   1      31.977  42.678  59.083  0.00  0.00     0.018 C 
HETATM    7  C   UNK N   1      30.570  40.006  59.828  0.00  0.00     0.035 C 
HETATM    8  C   UNK N   1      30.311  40.358  61.315  0.00  0.00     0.152 C 
HETATM    9  C   UNK N   1      28.937  41.084  61.595  0.00  0.00     0.080 C 
HETATM   10  O   UNK N   1      28.649  42.207  60.751  0.00  0.00    -0.372 OA
HETATM   11  C   UNK N   1      28.871  41.541  63.068  0.00  0.00     0.048 C 
HETATM   12  C   UNK N   1      27.795  40.071  61.372  0.00  0.00     0.048 C 
HETATM   13  C   UNK N   1      29.243  44.492  60.407  0.00  0.00     0.036 C 
HETATM   14  C   UNK N   1      30.205  45.382  59.644  0.00  0.00     0.040 C 
HETATM   15  C   UNK N   1      30.109  45.061  58.117  0.00  0.00     0.059 C 
HETATM   16  C   UNK N   1      31.350  45.614  57.378  0.00  0.00     0.046 C 
BRANCH   8  17
HETATM   17  O   UNK N   1      31.387  41.106  61.822  0.00  0.00    -0.393 OA
HETATM   18  H   UNK N   1      31.053  42.019  62.023  0.00  0.00     0.210 HD
ENDBRANCH   8  17
BRANCH  15  19
HETATM   19  O   UNK N   1      28.988  45.766  57.638  0.00  0.00    -0.390 OA
HETATM   20  H   UNK N   1      28.415  46.048  58.399  0.00  0.00     0.210 HD
ENDBRANCH  15  19
ENDBRANCH   1   2
BRANCH   1  21
HETATM   21  C   UNK N   1      28.180  43.216  55.840  0.00  0.00     0.042 C 
BRANCH  21  22
HETATM   22  C   UNK N   1      27.878  41.822  55.200  0.00  0.00     0.102 A 
HETATM   23  O   UNK N   1      27.253  40.977  56.120  0.00  0.00    -0.360 OA
HETATM   24  C   UNK N   1      26.405  41.423  55.064  0.00  0.00     0.116 A 
HETATM   25  C   UNK N   1      25.766  40.150  54.396  0.00  0.00     0.156 C 
HETATM   26  C   UNK N   1      25.323  42.368  55.650  0.00  0.00     0.052 C 
HETATM   27  C   UNK N   1      26.624  39.181  53.565  0.00  0.00     0.043 C 
HETATM   28  C   UNK N   1      27.898  38.599  54.191  0.00  0.00     0.027 C 
HETATM   29  C   UNK N   1      27.782  37.645  55.413  0.00  0.00     0.058 C 
HETATM   30  C   UNK N   1      29.094  39.550  54.497  0.00  0.00     0.003 C 
HETATM   31  C   UNK N   1      29.244  37.571  55.865  0.00  0.00     0.038 C 
HETATM   32  C   UNK N   1      27.191  36.273  55.049  0.00  0.00     0.046 C 
HETATM   33  C   UNK N   1      29.630  39.042  55.859  0.00  0.00     0.009 C 
HETATM   34  C   UNK N   1      29.009  41.122  54.328  0.00  0.00    -0.009 C 
HETATM   35  C   UNK N   1      30.426  41.648  54.717  0.00  0.00     0.018 C 
HETATM   36  C   UNK N   1      28.826  41.525  52.837  0.00  0.00     0.018 C 
BRANCH  25  37
HETATM   37  O   UNK N   1      24.971  39.404  55.294  0.00  0.00    -0.392 OA
HETATM   38  H   UNK N   1      25.334  38.489  55.410  0.00  0.00     0.210 HD
ENDBRANCH  25  37
BRANCH  29  39
HETATM   39  O   UNK N   1      27.014  38.231  56.434  0.00  0.00    -0.390 OA
HETATM   40  H   UNK N   1      26.055  38.145  56.189  0.00  0.00     0.210 HD
ENDBRANCH  29  39
ENDBRANCH  21  22
ENDBRANCH   1  21
TORSDOF 7
ENDMDL
MODEL 9
REMARK VINA RESULT:      -4.8     20.012     23.813
REMARK  7 active torsions:
REMARK  status: ('A' for Active; 'I' for Inactive)
REMARK    1  A    between atoms: C_3  and  O_4 
REMARK    2  A    between atoms: C_12  and  O_13 
REMARK    3  A    between atoms: C_15  and  C_16 
REMARK    4  A    between atoms: C_16  and  C_17 
REMARK    5  A    between atoms: C_17  and  C_18 
REMARK    6  A    between atoms: C_21  and  O_22 
REMARK    7  A    between atoms: C_26  and  O_27 
ROOT
HETATM    1  C   UNK N   1      48.711  53.444  59.817  0.00  0.00     0.011 C 
ENDROOT
BRANCH   1   2
HETATM    2  C   UNK N   1      48.186  53.885  61.229  0.00  0.00     0.030 C 
HETATM    3  C   UNK N   1      47.496  52.678  62.021  0.00  0.00    -0.011 C 
HETATM    4  C   UNK N   1      48.356  51.363  61.956  0.00  0.00     0.015 C 
HETATM    5  C   UNK N   1      46.045  52.380  61.437  0.00  0.00     0.131 C 
HETATM    6  C   UNK N   1      47.437  53.075  63.527  0.00  0.00     0.018 C 
HETATM    7  C   UNK N   1      47.869  50.104  62.713  0.00  0.00     0.035 C 
HETATM    8  C   UNK N   1      46.368  49.747  62.565  0.00  0.00     0.152 C 
HETATM    9  C   UNK N   1      45.768  49.987  61.124  0.00  0.00     0.080 C 
HETATM   10  O   UNK N   1      46.043  51.271  60.546  0.00  0.00    -0.372 OA
HETATM   11  C   UNK N   1      44.240  49.771  61.144  0.00  0.00     0.048 C 
HETATM   12  C   UNK N   1      46.372  48.942  60.163  0.00  0.00     0.048 C 
HETATM   13  C   UNK N   1      45.393  53.562  60.681  0.00  0.00     0.036 C 
HETATM   14  C   UNK N   1      45.729  54.869  61.376  0.00  0.00     0.040 C 
HETATM   15  C   UNK N   1      47.244  55.194  61.167  0.00  0.00     0.059 C 
HETATM   16  C   UNK N   1      47.708  56.249  62.197  0.00  0.00     0.046 C 
BRANCH   8  17
HETATM   17  O   UNK N   1      45.618  50.427  63.541  0.00  0.00    -0.393 OA
HETATM   18  H   UNK N   1      44.672  50.442  63.239  0.00  0.00     0.210 HD
ENDBRANCH   8  17
BRANCH  15  19
HETATM   19  O   UNK N   1      47.345  55.782  59.891  0.00  0.00    -0.390 OA
HETATM   20  H   UNK N   1      47.918  55.222  59.305  0.00  0.00     0.210 HD
ENDBRANCH  15  19
ENDBRANCH   1   2
BRANCH   1  21
HETATM   21  C   UNK N   1      50.170  53.841  59.482  0.00  0.00     0.042 C 
BRANCH  21  22
HETATM   22  C   UNK N   1      51.059  52.607  59.117  0.00  0.00     0.102 A 
HETATM   23  O   UNK N   1      50.277  51.562  58.619  0.00  0.00    -0.360 OA
HETATM   24  C   UNK N   1      51.103  52.193  57.642  0.00  0.00     0.116 A 
HETATM   25  C   UNK N   1      51.952  51.071  56.939  0.00  0.00     0.156 C 
HETATM   26  C   UNK N   1      50.200  52.949  56.631  0.00  0.00     0.052 C 
HETATM   27  C   UNK N   1      53.070  50.335  57.697  0.00  0.00     0.043 C 
HETATM   28  C   UNK N   1      52.741  49.679  59.044  0.00  0.00     0.027 C 
HETATM   29  C   UNK N   1      51.752  48.481  59.089  0.00  0.00     0.058 C 
HETATM   30  C   UNK N   1      52.379  50.586  60.259  0.00  0.00     0.003 C 
HETATM   31  C   UNK N   1      51.504  48.365  60.597  0.00  0.00     0.038 C 
HETATM   32  C   UNK N   1      52.333  47.199  58.472  0.00  0.00     0.046 C 
HETATM   33  C   UNK N   1      51.234  49.816  60.964  0.00  0.00     0.009 C 
HETATM   34  C   UNK N   1      52.190  52.152  60.138  0.00  0.00    -0.009 C 
HETATM   35  C   UNK N   1      51.866  52.635  61.587  0.00  0.00     0.018 C 
HETATM   36  C   UNK N   1      53.525  52.860  59.769  0.00  0.00     0.018 C 
BRANCH  25  37
HETATM   37  O   UNK N   1      51.150  50.120  56.268  0.00  0.00    -0.392 OA
HETATM   38  H   UNK N   1      51.514  49.206  56.387  0.00  0.00     0.210 HD
ENDBRANCH  25  37
BRANCH  29  39
HETATM   39  O   UNK N   1      50.544  48.806  58.448  0.00  0.00    -0.390 OA
HETATM   40  H   UNK N   1      49.812  48.302  58.893  0.00  0.00     0.210 HD
ENDBRANCH  29  39
ENDBRANCH  21  22
ENDBRANCH   1  21
TORSDOF 7
ENDMDL
