MODEL 1
REMARK VINA RESULT:      -6.4      0.000      0.000
REMARK  5 active torsions:
REMARK  status: ('A' for Active; 'I' for Inactive)
REMARK    1  A    between atoms: C_5  and  C_6 
REMARK    2  A    between atoms: C_6  and  C_7 
REMARK    3  A    between atoms: C_8  and  O_9 
REMARK    4  A    between atoms: C_18  and  O_19 
REMARK    5  A    between atoms: C_29  and  O_30 
ROOT
HETATM    1  C   UNK N   1      30.916  47.107  62.524  0.00  0.00     0.028 C 
HETATM    2  C   UNK N   1      30.076  48.196  63.272  0.00  0.00     0.123 C 
HETATM    3  C   UNK N   1      29.153  48.958  62.313  0.00  0.00     0.034 C 
HETATM    4  C   UNK N   1      28.189  47.993  61.654  0.00  0.00     0.035 C 
HETATM    5  C   UNK N   1      28.933  46.923  60.845  0.00  0.00     0.131 C 
HETATM    6  O   UNK N   1      29.554  47.506  59.708  0.00  0.00    -0.372 OA
HETATM    7  C   UNK N   1      29.396  46.766  58.484  0.00  0.00     0.080 C 
HETATM    8  C   UNK N   1      30.600  47.140  57.598  0.00  0.00     0.048 C 
HETATM    9  C   UNK N   1      28.117  47.275  57.790  0.00  0.00     0.048 C 
HETATM   10  C   UNK N   1      29.297  45.185  58.647  0.00  0.00     0.152 C 
HETATM   11  C   UNK N   1      30.368  44.500  59.538  0.00  0.00     0.035 C 
HETATM   12  C   UNK N   1      30.941  45.342  60.694  0.00  0.00     0.015 C 
HETATM   13  C   UNK N   1      29.991  46.112  61.677  0.00  0.00    -0.011 C 
HETATM   14  C   UNK N   1      29.232  45.104  62.577  0.00  0.00     0.018 C 
ENDROOT
BRANCH   1  15
HETATM   15  C   UNK N   1      31.835  46.340  63.535  0.00  0.00     0.035 C 
BRANCH  15  16
HETATM   16  C   UNK N   1      33.276  46.802  63.570  0.00  0.00    -0.022 C 
HETATM   17  C   UNK N   1      34.373  46.003  63.444  0.00  0.00    -0.067 C 
HETATM   18  C   UNK N   1      34.206  44.496  63.247  0.00  0.00     0.080 C 
HETATM   19  C   UNK N   1      35.848  46.531  63.502  0.00  0.00     0.029 C 
HETATM   20  C   UNK N   1      35.003  44.126  62.033  0.00  0.00     0.135 C 
HETATM   21  C   UNK N   1      34.677  43.723  64.491  0.00  0.00     0.022 C 
HETATM   22  O   UNK N   1      34.474  43.581  61.077  0.00  0.00    -0.297 OA
HETATM   23  C   UNK N   1      36.453  44.492  62.000  0.00  0.00     0.086 C 
HETATM   24  C   UNK N   1      36.615  46.020  62.217  0.00  0.00     0.030 C 
HETATM   25  C   UNK N   1      38.134  46.336  62.281  0.00  0.00     0.123 C 
HETATM   26  C   UNK N   1      38.383  47.828  62.499  0.00  0.00     0.033 C 
HETATM   27  C   UNK N   1      37.691  48.286  63.788  0.00  0.00     0.012 C 
HETATM   28  C   UNK N   1      36.144  48.082  63.753  0.00  0.00    -0.040 C 
HETATM   29  C   UNK N   1      35.643  48.530  65.154  0.00  0.00     0.015 C 
HETATM   30  C   UNK N   1      35.572  49.035  62.658  0.00  0.00     0.015 C 
BRANCH  25  31
HETATM   31  O   UNK N   1      38.732  45.605  63.326  0.00  0.00    -0.395 OA
HETATM   32  H   UNK N   1      38.376  44.679  63.274  0.00  0.00     0.210 HD
ENDBRANCH  25  31
ENDBRANCH  15  16
ENDBRANCH   1  15
BRANCH   2  33
HETATM   33  O   UNK N   1      30.891  49.127  63.936  0.00  0.00    -0.395 OA
HETATM   34  H   UNK N   1      30.788  50.003  63.481  0.00  0.00     0.210 HD
ENDBRANCH   2  33
BRANCH  10  35
HETATM   35  O   UNK N   1      29.191  44.531  57.406  0.00  0.00    -0.393 OA
HETATM   36  H   UNK N   1      29.832  43.774  57.398  0.00  0.00     0.210 HD
ENDBRANCH  10  35
TORSDOF 5
ENDMDL
MODEL 2
REMARK VINA RESULT:      -5.9      2.488      3.844
REMARK  5 active torsions:
REMARK  status: ('A' for Active; 'I' for Inactive)
REMARK    1  A    between atoms: C_5  and  C_6 
REMARK    2  A    between atoms: C_6  and  C_7 
REMARK    3  A    between atoms: C_8  and  O_9 
REMARK    4  A    between atoms: C_18  and  O_19 
REMARK    5  A    between atoms: C_29  and  O_30 
ROOT
HETATM    1  C   UNK N   1      31.189  43.211  61.863  0.00  0.00     0.028 C 
HETATM    2  C   UNK N   1      29.948  42.490  62.487  0.00  0.00     0.123 C 
HETATM    3  C   UNK N   1      28.797  42.366  61.480  0.00  0.00     0.034 C 
HETATM    4  C   UNK N   1      29.252  41.562  60.279  0.00  0.00     0.035 C 
HETATM    5  C   UNK N   1      30.433  42.236  59.568  0.00  0.00     0.131 C 
HETATM    6  O   UNK N   1      30.013  43.442  58.946  0.00  0.00    -0.372 OA
HETATM    7  C   UNK N   1      30.505  43.638  57.608  0.00  0.00     0.080 C 
HETATM    8  C   UNK N   1      30.524  45.161  57.376  0.00  0.00     0.048 C 
HETATM    9  C   UNK N   1      29.481  43.020  56.636  0.00  0.00     0.048 C 
HETATM   10  C   UNK N   1      31.939  43.013  57.309  0.00  0.00     0.152 C 
HETATM   11  C   UNK N   1      33.068  43.316  58.331  0.00  0.00     0.035 C 
HETATM   12  C   UNK N   1      32.631  43.531  59.793  0.00  0.00     0.015 C 
HETATM   13  C   UNK N   1      31.666  42.516  60.502  0.00  0.00    -0.011 C 
HETATM   14  C   UNK N   1      32.400  41.174  60.753  0.00  0.00     0.018 C 
ENDROOT
BRANCH   1  15
HETATM   15  C   UNK N   1      32.347  43.307  62.914  0.00  0.00     0.035 C 
BRANCH  15  16
HETATM   16  C   UNK N   1      32.680  44.710  63.375  0.00  0.00    -0.022 C 
HETATM   17  C   UNK N   1      33.932  45.206  63.580  0.00  0.00    -0.067 C 
HETATM   18  C   UNK N   1      35.157  44.322  63.342  0.00  0.00     0.080 C 
HETATM   19  C   UNK N   1      34.223  46.665  64.075  0.00  0.00     0.029 C 
HETATM   20  C   UNK N   1      36.065  45.077  62.420  0.00  0.00     0.135 C 
HETATM   21  C   UNK N   1      35.856  43.979  64.669  0.00  0.00     0.022 C 
HETATM   22  O   UNK N   1      36.408  44.601  61.349  0.00  0.00    -0.297 OA
HETATM   23  C   UNK N   1      36.494  46.453  62.819  0.00  0.00     0.086 C 
HETATM   24  C   UNK N   1      35.246  47.339  63.076  0.00  0.00     0.030 C 
HETATM   25  C   UNK N   1      35.738  48.720  63.589  0.00  0.00     0.123 C 
HETATM   26  C   UNK N   1      34.565  49.658  63.873  0.00  0.00     0.033 C 
HETATM   27  C   UNK N   1      33.623  49.015  64.897  0.00  0.00     0.012 C 
HETATM   28  C   UNK N   1      33.019  47.664  64.404  0.00  0.00    -0.040 C 
HETATM   29  C   UNK N   1      32.165  47.142  65.593  0.00  0.00     0.015 C 
HETATM   30  C   UNK N   1      32.092  47.983  63.189  0.00  0.00     0.015 C 
BRANCH  25  31
HETATM   31  O   UNK N   1      36.496  48.552  64.764  0.00  0.00    -0.395 OA
HETATM   32  H   UNK N   1      37.182  49.270  64.772  0.00  0.00     0.210 HD
ENDBRANCH  25  31
ENDBRANCH  15  16
ENDBRANCH   1  15
BRANCH   2  33
HETATM   33  O   UNK N   1      29.469  43.156  63.627  0.00  0.00    -0.395 OA
HETATM   34  H   UNK N   1      29.737  42.627  64.424  0.00  0.00     0.210 HD
ENDBRANCH   2  33
BRANCH  10  35
HETATM   35  O   UNK N   1      32.371  43.287  55.998  0.00  0.00    -0.393 OA
HETATM   36  H   UNK N   1      31.625  43.084  55.376  0.00  0.00     0.210 HD
ENDBRANCH  10  35
TORSDOF 5
ENDMDL
MODEL 3
REMARK VINA RESULT:      -5.8      5.795     11.153
REMARK  5 active torsions:
REMARK  status: ('A' for Active; 'I' for Inactive)
REMARK    1  A    between atoms: C_5  and  C_6 
REMARK    2  A    between atoms: C_6  and  C_7 
REMARK    3  A    between atoms: C_8  and  O_9 
REMARK    4  A    between atoms: C_18  and  O_19 
REMARK    5  A    between atoms: C_29  and  O_30 
ROOT
HETATM    1  C   UNK N   1      30.274  42.783  56.595  0.00  0.00     0.028 C 
HETATM    2  C   UNK N   1      31.741  43.174  56.976  0.00  0.00     0.123 C 
HETATM    3  C   UNK N   1      31.786  44.443  57.835  0.00  0.00     0.034 C 
HETATM    4  C   UNK N   1      31.011  44.221  59.119  0.00  0.00     0.035 C 
HETATM    5  C   UNK N   1      29.540  43.892  58.835  0.00  0.00     0.131 C 
HETATM    6  O   UNK N   1      28.872  45.029  58.307  0.00  0.00    -0.372 OA
HETATM    7  C   UNK N   1      27.574  45.287  58.872  0.00  0.00     0.080 C 
HETATM    8  C   UNK N   1      26.783  46.060  57.799  0.00  0.00     0.048 C 
HETATM    9  C   UNK N   1      27.767  46.219  60.085  0.00  0.00     0.048 C 
HETATM   10  C   UNK N   1      26.762  43.999  59.339  0.00  0.00     0.152 C 
HETATM   11  C   UNK N   1      26.669  42.821  58.332  0.00  0.00     0.035 C 
HETATM   12  C   UNK N   1      27.853  42.654  57.359  0.00  0.00     0.015 C 
HETATM   13  C   UNK N   1      29.332  42.659  57.883  0.00  0.00    -0.011 C 
HETATM   14  C   UNK N   1      29.611  41.367  58.693  0.00  0.00     0.018 C 
ENDROOT
BRANCH   1  15
HETATM   15  C   UNK N   1      30.267  41.476  55.731  0.00  0.00     0.035 C 
BRANCH  15  16
HETATM   16  C   UNK N   1      29.366  41.516  54.515  0.00  0.00    -0.022 C 
HETATM   17  C   UNK N   1      28.437  40.577  54.179  0.00  0.00    -0.067 C 
HETATM   18  C   UNK N   1      28.234  39.348  55.065  0.00  0.00     0.080 C 
HETATM   19  C   UNK N   1      27.538  40.659  52.897  0.00  0.00     0.029 C 
HETATM   20  C   UNK N   1      26.770  39.276  55.377  0.00  0.00     0.135 C 
HETATM   21  C   UNK N   1      28.726  38.072  54.359  0.00  0.00     0.022 C 
HETATM   22  O   UNK N   1      26.374  39.281  56.532  0.00  0.00    -0.297 OA
HETATM   23  C   UNK N   1      25.803  39.253  54.236  0.00  0.00     0.086 C 
HETATM   24  C   UNK N   1      26.027  40.495  53.333  0.00  0.00     0.030 C 
HETATM   25  C   UNK N   1      25.078  40.374  52.110  0.00  0.00     0.123 C 
HETATM   26  C   UNK N   1      25.239  41.561  51.161  0.00  0.00     0.033 C 
HETATM   27  C   UNK N   1      26.696  41.658  50.695  0.00  0.00     0.012 C 
HETATM   28  C   UNK N   1      27.698  41.874  51.871  0.00  0.00    -0.040 C 
HETATM   29  C   UNK N   1      29.105  41.872  51.213  0.00  0.00     0.015 C 
HETATM   30  C   UNK N   1      27.404  43.280  52.483  0.00  0.00     0.015 C 
BRANCH  25  31
HETATM   31  O   UNK N   1      25.345  39.180  51.413  0.00  0.00    -0.395 OA
HETATM   32  H   UNK N   1      26.315  39.178  51.200  0.00  0.00     0.210 HD
ENDBRANCH  25  31
ENDBRANCH  15  16
ENDBRANCH   1  15
BRANCH   2  33
HETATM   33  O   UNK N   1      32.545  43.378  55.842  0.00  0.00    -0.395 OA
HETATM   34  H   UNK N   1      33.297  43.971  56.104  0.00  0.00     0.210 HD
ENDBRANCH   2  33
BRANCH  10  35
HETATM   35  O   UNK N   1      25.488  44.329  59.836  0.00  0.00    -0.393 OA
HETATM   36  H   UNK N   1      25.218  45.200  59.445  0.00  0.00     0.210 HD
ENDBRANCH  10  35
TORSDOF 5
ENDMDL
MODEL 4
REMARK VINA RESULT:      -5.7      4.959     10.114
REMARK  5 active torsions:
REMARK  status: ('A' for Active; 'I' for Inactive)
REMARK    1  A    between atoms: C_5  and  C_6 
REMARK    2  A    between atoms: C_6  and  C_7 
REMARK    3  A    between atoms: C_8  and  O_9 
REMARK    4  A    between atoms: C_18  and  O_19 
REMARK    5  A    between atoms: C_29  and  O_30 
ROOT
HETATM    1  C   UNK N   1      28.855  43.565  58.845  0.00  0.00     0.028 C 
HETATM    2  C   UNK N   1      28.131  44.438  59.924  0.00  0.00     0.123 C 
HETATM    3  C   UNK N   1      28.950  44.538  61.217  0.00  0.00     0.034 C 
HETATM    4  C   UNK N   1      30.295  45.173  60.924  0.00  0.00     0.035 C 
HETATM    5  C   UNK N   1      31.099  44.342  59.916  0.00  0.00     0.131 C 
HETATM    6  O   UNK N   1      31.501  43.112  60.499  0.00  0.00    -0.372 OA
HETATM    7  C   UNK N   1      32.868  42.738  60.246  0.00  0.00     0.080 C 
HETATM    8  C   UNK N   1      32.919  41.201  60.350  0.00  0.00     0.048 C 
HETATM    9  C   UNK N   1      33.732  43.322  61.382  0.00  0.00     0.048 C 
HETATM   10  C   UNK N   1      33.462  43.220  58.850  0.00  0.00     0.152 C 
HETATM   11  C   UNK N   1      32.603  42.947  57.586  0.00  0.00     0.035 C 
HETATM   12  C   UNK N   1      31.075  42.922  57.786  0.00  0.00     0.015 C 
HETATM   13  C   UNK N   1      30.347  44.074  58.563  0.00  0.00    -0.011 C 
HETATM   14  C   UNK N   1      30.374  45.378  57.725  0.00  0.00     0.018 C 
ENDROOT
BRANCH   1  15
HETATM   15  C   UNK N   1      27.997  43.498  57.536  0.00  0.00     0.035 C 
BRANCH  15  16
HETATM   16  C   UNK N   1      27.608  42.103  57.095  0.00  0.00    -0.022 C 
HETATM   17  C   UNK N   1      27.919  41.528  55.899  0.00  0.00    -0.067 C 
HETATM   18  C   UNK N   1      28.733  42.305  54.863  0.00  0.00     0.080 C 
HETATM   19  C   UNK N   1      27.478  40.082  55.485  0.00  0.00     0.029 C 
HETATM   20  C   UNK N   1      29.889  41.434  54.477  0.00  0.00     0.135 C 
HETATM   21  C   UNK N   1      27.867  42.671  53.645  0.00  0.00     0.022 C 
HETATM   22  O   UNK N   1      31.039  41.822  54.611  0.00  0.00    -0.297 OA
HETATM   23  C   UNK N   1      29.599  40.055  53.975  0.00  0.00     0.086 C 
HETATM   24  C   UNK N   1      28.760  39.279  55.024  0.00  0.00     0.030 C 
HETATM   25  C   UNK N   1      28.394  37.897  54.417  0.00  0.00     0.123 C 
HETATM   26  C   UNK N   1      27.559  37.066  55.390  0.00  0.00     0.033 C 
HETATM   27  C   UNK N   1      26.286  37.833  55.767  0.00  0.00     0.012 C 
HETATM   28  C   UNK N   1      26.583  39.195  56.468  0.00  0.00    -0.040 C 
HETATM   29  C   UNK N   1      25.191  39.845  56.700  0.00  0.00     0.015 C 
HETATM   30  C   UNK N   1      27.252  38.877  57.842  0.00  0.00     0.015 C 
BRANCH  25  31
HETATM   31  O   UNK N   1      27.676  38.075  53.219  0.00  0.00    -0.395 OA
HETATM   32  H   UNK N   1      28.182  37.605  52.505  0.00  0.00     0.210 HD
ENDBRANCH  25  31
ENDBRANCH  15  16
ENDBRANCH   1  15
BRANCH   2  33
HETATM   33  O   UNK N   1      26.859  43.935  60.243  0.00  0.00    -0.395 OA
HETATM   34  H   UNK N   1      26.941  43.405  61.079  0.00  0.00     0.210 HD
ENDBRANCH   2  33
BRANCH  10  35
HETATM   35  O   UNK N   1      34.783  42.778  58.657  0.00  0.00    -0.393 OA
HETATM   36  H   UNK N   1      35.374  43.285  59.272  0.00  0.00     0.210 HD
ENDBRANCH  10  35
TORSDOF 5
ENDMDL
MODEL 5
REMARK VINA RESULT:      -5.6      5.536      9.315
REMARK  5 active torsions:
REMARK  status: ('A' for Active; 'I' for Inactive)
REMARK    1  A    between atoms: C_5  and  C_6 
REMARK    2  A    between atoms: C_6  and  C_7 
REMARK    3  A    between atoms: C_8  and  O_9 
REMARK    4  A    between atoms: C_18  and  O_19 
REMARK    5  A    between atoms: C_29  and  O_30 
ROOT
HETATM    1  C   UNK N   1      27.950  40.081  56.208  0.00  0.00     0.028 C 
HETATM    2  C   UNK N   1      27.614  38.565  56.400  0.00  0.00     0.123 C 
HETATM    3  C   UNK N   1      26.694  38.043  55.289  0.00  0.00     0.034 C 
HETATM    4  C   UNK N   1      27.371  38.207  53.943  0.00  0.00     0.035 C 
HETATM    5  C   UNK N   1      27.680  39.681  53.648  0.00  0.00     0.131 C 
HETATM    6  O   UNK N   1      26.478  40.406  53.438  0.00  0.00    -0.372 OA
HETATM    7  C   UNK N   1      26.500  41.307  52.316  0.00  0.00     0.080 C 
HETATM    8  C   UNK N   1      25.471  42.410  52.630  0.00  0.00     0.048 C 
HETATM    9  C   UNK N   1      26.005  40.530  51.081  0.00  0.00     0.048 C 
HETATM   10  C   UNK N   1      27.918  41.951  51.983  0.00  0.00     0.152 C 
HETATM   11  C   UNK N   1      28.707  42.571  53.168  0.00  0.00     0.035 C 
HETATM   12  C   UNK N   1      28.473  41.941  54.555  0.00  0.00     0.015 C 
HETATM   13  C   UNK N   1      28.546  40.386  54.754  0.00  0.00    -0.011 C 
HETATM   14  C   UNK N   1      30.011  39.902  54.606  0.00  0.00     0.018 C 
ENDROOT
BRANCH   1  15
HETATM   15  C   UNK N   1      28.901  40.576  57.351  0.00  0.00     0.035 C 
BRANCH  15  16
HETATM   16  C   UNK N   1      28.645  41.987  57.833  0.00  0.00    -0.022 C 
HETATM   17  C   UNK N   1      29.599  42.916  58.125  0.00  0.00    -0.067 C 
HETATM   18  C   UNK N   1      31.080  42.568  57.973  0.00  0.00     0.080 C 
HETATM   19  C   UNK N   1      29.280  44.363  58.636  0.00  0.00     0.029 C 
HETATM   20  C   UNK N   1      31.691  43.635  57.116  0.00  0.00     0.135 C 
HETATM   21  C   UNK N   1      31.769  42.482  59.347  0.00  0.00     0.022 C 
HETATM   22  O   UNK N   1      32.259  43.352  56.073  0.00  0.00    -0.297 OA
HETATM   23  C   UNK N   1      31.538  45.060  57.543  0.00  0.00     0.086 C 
HETATM   24  C   UNK N   1      30.034  45.400  57.710  0.00  0.00     0.030 C 
HETATM   25  C   UNK N   1      29.929  46.851  58.255  0.00  0.00     0.123 C 
HETATM   26  C   UNK N   1      28.472  47.266  58.454  0.00  0.00     0.033 C 
HETATM   27  C   UNK N   1      27.780  46.289  59.411  0.00  0.00     0.012 C 
HETATM   28  C   UNK N   1      27.768  44.822  58.879  0.00  0.00    -0.040 C 
HETATM   29  C   UNK N   1      27.101  43.986  60.006  0.00  0.00     0.015 C 
HETATM   30  C   UNK N   1      26.872  44.797  57.602  0.00  0.00     0.015 C 
BRANCH  25  31
HETATM   31  O   UNK N   1      30.616  46.953  59.480  0.00  0.00    -0.395 OA
HETATM   32  H   UNK N   1      30.730  47.921  59.669  0.00  0.00     0.210 HD
ENDBRANCH  25  31
ENDBRANCH  15  16
ENDBRANCH   1  15
BRANCH   2  33
HETATM   33  O   UNK N   1      27.001  38.312  57.638  0.00  0.00    -0.395 OA
HETATM   34  H   UNK N   1      26.552  37.428  57.581  0.00  0.00     0.210 HD
ENDBRANCH   2  33
BRANCH  10  35
HETATM   35  O   UNK N   1      27.849  42.853  50.906  0.00  0.00    -0.393 OA
HETATM   36  H   UNK N   1      28.735  43.288  50.809  0.00  0.00     0.210 HD
ENDBRANCH  10  35
TORSDOF 5
ENDMDL
MODEL 6
REMARK VINA RESULT:      -5.6      4.826      7.539
REMARK  5 active torsions:
REMARK  status: ('A' for Active; 'I' for Inactive)
REMARK    1  A    between atoms: C_5  and  C_6 
REMARK    2  A    between atoms: C_6  and  C_7 
REMARK    3  A    between atoms: C_8  and  O_9 
REMARK    4  A    between atoms: C_18  and  O_19 
REMARK    5  A    between atoms: C_29  and  O_30 
ROOT
HETATM    1  C   UNK N   1      29.848  47.000  57.713  0.00  0.00     0.028 C 
HETATM    2  C   UNK N   1      30.410  48.420  57.369  0.00  0.00     0.123 C 
HETATM    3  C   UNK N   1      29.308  49.487  57.391  0.00  0.00     0.034 C 
HETATM    4  C   UNK N   1      28.683  49.551  58.771  0.00  0.00     0.035 C 
HETATM    5  C   UNK N   1      28.051  48.209  59.161  0.00  0.00     0.131 C 
HETATM    6  O   UNK N   1      26.910  47.947  58.358  0.00  0.00    -0.372 OA
HETATM    7  C   UNK N   1      25.762  47.456  59.074  0.00  0.00     0.080 C 
HETATM    8  C   UNK N   1      24.936  46.644  58.058  0.00  0.00     0.048 C 
HETATM    9  C   UNK N   1      24.923  48.674  59.508  0.00  0.00     0.048 C 
HETATM   10  C   UNK N   1      26.085  46.571  60.359  0.00  0.00     0.152 C 
HETATM   11  C   UNK N   1      27.122  45.429  60.186  0.00  0.00     0.035 C 
HETATM   12  C   UNK N   1      28.223  45.654  59.132  0.00  0.00     0.015 C 
HETATM   13  C   UNK N   1      29.043  46.991  59.097  0.00  0.00    -0.011 C 
HETATM   14  C   UNK N   1      29.985  47.066  60.326  0.00  0.00     0.018 C 
ENDROOT
BRANCH   1  15
HETATM   15  C   UNK N   1      31.002  45.940  57.695  0.00  0.00     0.035 C 
BRANCH  15  16
HETATM   16  C   UNK N   1      30.570  44.527  57.367  0.00  0.00    -0.022 C 
HETATM   17  C   UNK N   1      30.716  43.441  58.176  0.00  0.00    -0.067 C 
HETATM   18  C   UNK N   1      31.365  43.590  59.553  0.00  0.00     0.080 C 
HETATM   19  C   UNK N   1      30.264  41.992  57.782  0.00  0.00     0.029 C 
HETATM   20  C   UNK N   1      30.420  42.986  60.546  0.00  0.00     0.135 C 
HETATM   21  C   UNK N   1      32.742  42.903  59.590  0.00  0.00     0.022 C 
HETATM   22  O   UNK N   1      29.985  43.644  61.478  0.00  0.00    -0.297 OA
HETATM   23  C   UNK N   1      29.980  41.572  60.336  0.00  0.00     0.086 C 
HETATM   24  C   UNK N   1      29.338  41.425  58.931  0.00  0.00     0.030 C 
HETATM   25  C   UNK N   1      28.996  39.925  58.717  0.00  0.00     0.123 C 
HETATM   26  C   UNK N   1      28.360  39.690  57.347  0.00  0.00     0.033 C 
HETATM   27  C   UNK N   1      29.305  40.182  56.245  0.00  0.00     0.012 C 
HETATM   28  C   UNK N   1      29.618  41.707  56.348  0.00  0.00    -0.040 C 
HETATM   29  C   UNK N   1      30.634  41.992  55.207  0.00  0.00     0.015 C 
HETATM   30  C   UNK N   1      28.288  42.476  56.074  0.00  0.00     0.015 C 
BRANCH  25  31
HETATM   31  O   UNK N   1      30.164  39.146  58.828  0.00  0.00    -0.395 OA
HETATM   32  H   UNK N   1      30.888  39.640  58.362  0.00  0.00     0.210 HD
ENDBRANCH  25  31
ENDBRANCH  15  16
ENDBRANCH   1  15
BRANCH   2  33
HETATM   33  O   UNK N   1      31.032  48.451  56.110  0.00  0.00    -0.395 OA
HETATM   34  H   UNK N   1      31.991  48.670  56.249  0.00  0.00     0.210 HD
ENDBRANCH   2  33
BRANCH  10  35
HETATM   35  O   UNK N   1      24.916  46.091  60.977  0.00  0.00    -0.393 OA
HETATM   36  H   UNK N   1      24.881  45.107  60.853  0.00  0.00     0.210 HD
ENDBRANCH  10  35
TORSDOF 5
ENDMDL
MODEL 7
REMARK VINA RESULT:      -5.5      1.922      7.994
REMARK  5 active torsions:
REMARK  status: ('A' for Active; 'I' for Inactive)
REMARK    1  A    between atoms: C_5  and  C_6 
REMARK    2  A    between atoms: C_6  and  C_7 
REMARK    3  A    between atoms: C_8  and  O_9 
REMARK    4  A    between atoms: C_18  and  O_19 
REMARK    5  A    between atoms: C_29  and  O_30 
ROOT
HETATM    1  C   UNK N   1      32.168  45.402  62.268  0.00  0.00     0.028 C 
HETATM    2  C   UNK N   1      32.558  43.910  62.001  0.00  0.00     0.123 C 
HETATM    3  C   UNK N   1      34.075  43.697  62.082  0.00  0.00     0.034 C 
HETATM    4  C   UNK N   1      34.572  44.072  63.464  0.00  0.00     0.035 C 
HETATM    5  C   UNK N   1      34.283  45.544  63.782  0.00  0.00     0.131 C 
HETATM    6  O   UNK N   1      35.079  46.392  62.967  0.00  0.00    -0.372 OA
HETATM    7  C   UNK N   1      35.695  47.494  63.657  0.00  0.00     0.080 C 
HETATM    8  C   UNK N   1      35.921  48.592  62.600  0.00  0.00     0.048 C 
HETATM    9  C   UNK N   1      37.075  47.022  64.157  0.00  0.00     0.048 C 
HETATM   10  C   UNK N   1      34.873  48.074  64.892  0.00  0.00     0.152 C 
HETATM   11  C   UNK N   1      33.369  48.380  64.657  0.00  0.00     0.035 C 
HETATM   12  C   UNK N   1      32.646  47.505  63.614  0.00  0.00     0.015 C 
HETATM   13  C   UNK N   1      32.768  45.942  63.651  0.00  0.00    -0.011 C 
HETATM   14  C   UNK N   1      32.010  45.380  64.880  0.00  0.00     0.018 C 
ENDROOT
BRANCH   1  15
HETATM   15  C   UNK N   1      30.613  45.579  62.191  0.00  0.00     0.035 C 
BRANCH  15  16
HETATM   16  C   UNK N   1      30.107  46.273  60.945  0.00  0.00    -0.022 C 
HETATM   17  C   UNK N   1      29.423  47.452  60.911  0.00  0.00    -0.067 C 
HETATM   18  C   UNK N   1      29.105  48.193  62.210  0.00  0.00     0.080 C 
HETATM   19  C   UNK N   1      28.907  48.122  59.591  0.00  0.00     0.029 C 
HETATM   20  C   UNK N   1      29.599  49.597  62.041  0.00  0.00     0.135 C 
HETATM   21  C   UNK N   1      27.596  48.155  62.509  0.00  0.00     0.022 C 
HETATM   22  O   UNK N   1      30.415  50.072  62.815  0.00  0.00    -0.297 OA
HETATM   23  C   UNK N   1      29.109  50.383  60.866  0.00  0.00     0.086 C 
HETATM   24  C   UNK N   1      29.421  49.617  59.554  0.00  0.00     0.030 C 
HETATM   25  C   UNK N   1      28.802  50.417  58.375  0.00  0.00     0.123 C 
HETATM   26  C   UNK N   1      29.060  49.725  57.037  0.00  0.00     0.033 C 
HETATM   27  C   UNK N   1      28.491  48.302  57.070  0.00  0.00     0.012 C 
HETATM   28  C   UNK N   1      29.139  47.413  58.177  0.00  0.00    -0.040 C 
HETATM   29  C   UNK N   1      28.388  46.055  58.100  0.00  0.00     0.015 C 
HETATM   30  C   UNK N   1      30.638  47.210  57.794  0.00  0.00     0.015 C 
BRANCH  25  31
HETATM   31  O   UNK N   1      27.414  50.557  58.568  0.00  0.00    -0.395 OA
HETATM   32  H   UNK N   1      27.078  51.149  57.845  0.00  0.00     0.210 HD
ENDBRANCH  25  31
ENDBRANCH  15  16
ENDBRANCH   1  15
BRANCH   2  33
HETATM   33  O   UNK N   1      32.115  43.465  60.745  0.00  0.00    -0.395 OA
HETATM   34  H   UNK N   1      32.321  44.173  60.080  0.00  0.00     0.210 HD
ENDBRANCH   2  33
BRANCH  10  35
HETATM   35  O   UNK N   1      35.517  49.176  65.484  0.00  0.00    -0.393 OA
HETATM   36  H   UNK N   1      35.724  48.945  66.426  0.00  0.00     0.210 HD
ENDBRANCH  10  35
TORSDOF 5
ENDMDL
MODEL 8
REMARK VINA RESULT:      -5.5      5.220      8.934
REMARK  5 active torsions:
REMARK  status: ('A' for Active; 'I' for Inactive)
REMARK    1  A    between atoms: C_5  and  C_6 
REMARK    2  A    between atoms: C_6  and  C_7 
REMARK    3  A    between atoms: C_8  and  O_9 
REMARK    4  A    between atoms: C_18  and  O_19 
REMARK    5  A    between atoms: C_29  and  O_30 
ROOT
HETATM    1  C   UNK N   1      30.473  44.258  58.264  0.00  0.00     0.028 C 
HETATM    2  C   UNK N   1      31.518  45.342  57.838  0.00  0.00     0.123 C 
HETATM    3  C   UNK N   1      30.839  46.656  57.432  0.00  0.00     0.034 C 
HETATM    4  C   UNK N   1      30.043  47.204  58.600  0.00  0.00     0.035 C 
HETATM    5  C   UNK N   1      28.950  46.223  59.042  0.00  0.00     0.131 C 
HETATM    6  O   UNK N   1      27.941  46.126  58.047  0.00  0.00    -0.372 OA
HETATM    7  C   UNK N   1      26.592  46.158  58.546  0.00  0.00     0.080 C 
HETATM    8  C   UNK N   1      25.732  45.411  57.508  0.00  0.00     0.048 C 
HETATM    9  C   UNK N   1      26.136  47.630  58.572  0.00  0.00     0.048 C 
HETATM   10  C   UNK N   1      26.382  45.530  59.994  0.00  0.00     0.152 C 
HETATM   11  C   UNK N   1      27.002  44.130  60.253  0.00  0.00     0.035 C 
HETATM   12  C   UNK N   1      28.280  43.788  59.461  0.00  0.00     0.015 C 
HETATM   13  C   UNK N   1      29.485  44.791  59.405  0.00  0.00    -0.011 C 
HETATM   14  C   UNK N   1      30.175  44.866  60.791  0.00  0.00     0.018 C 
ENDROOT
BRANCH   1  15
HETATM   15  C   UNK N   1      31.201  42.936  58.684  0.00  0.00     0.035 C 
BRANCH  15  16
HETATM   16  C   UNK N   1      30.398  41.669  58.484  0.00  0.00    -0.022 C 
HETATM   17  C   UNK N   1      29.786  41.287  57.328  0.00  0.00    -0.067 C 
HETATM   18  C   UNK N   1      29.877  42.169  56.083  0.00  0.00     0.080 C 
HETATM   19  C   UNK N   1      28.951  39.968  57.178  0.00  0.00     0.029 C 
HETATM   20  C   UNK N   1      30.367  41.297  54.967  0.00  0.00     0.135 C 
HETATM   21  C   UNK N   1      28.512  42.799  55.753  0.00  0.00     0.022 C 
HETATM   22  O   UNK N   1      31.387  41.573  54.357  0.00  0.00    -0.297 OA
HETATM   23  C   UNK N   1      29.603  40.048  54.658  0.00  0.00     0.086 C 
HETATM   24  C   UNK N   1      29.500  39.166  55.930  0.00  0.00     0.030 C 
HETATM   25  C   UNK N   1      28.612  37.938  55.590  0.00  0.00     0.123 C 
HETATM   26  C   UNK N   1      28.455  37.014  56.798  0.00  0.00     0.033 C 
HETATM   27  C   UNK N   1      27.854  37.794  57.973  0.00  0.00     0.012 C 
HETATM   28  C   UNK N   1      28.746  38.992  58.427  0.00  0.00    -0.040 C 
HETATM   29  C   UNK N   1      27.944  39.690  59.560  0.00  0.00     0.015 C 
HETATM   30  C   UNK N   1      30.067  38.396  59.006  0.00  0.00     0.015 C 
BRANCH  25  31
HETATM   31  O   UNK N   1      27.341  38.369  55.164  0.00  0.00    -0.395 OA
HETATM   32  H   UNK N   1      27.482  38.941  54.364  0.00  0.00     0.210 HD
ENDBRANCH  25  31
ENDBRANCH  15  16
ENDBRANCH   1  15
BRANCH   2  33
HETATM   33  O   UNK N   1      32.321  44.910  56.770  0.00  0.00    -0.395 OA
HETATM   34  H   UNK N   1      32.019  44.001  56.508  0.00  0.00     0.210 HD
ENDBRANCH   2  33
BRANCH  10  35
HETATM   35  O   UNK N   1      25.033  45.556  60.391  0.00  0.00    -0.393 OA
HETATM   36  H   UNK N   1      24.990  45.890  61.325  0.00  0.00     0.210 HD
ENDBRANCH  10  35
TORSDOF 5
ENDMDL
MODEL 9
REMARK VINA RESULT:      -5.4      4.465      8.060
REMARK  5 active torsions:
REMARK  status: ('A' for Active; 'I' for Inactive)
REMARK    1  A    between atoms: C_5  and  C_6 
REMARK    2  A    between atoms: C_6  and  C_7 
REMARK    3  A    between atoms: C_8  and  O_9 
REMARK    4  A    between atoms: C_18  and  O_19 
REMARK    5  A    between atoms: C_29  and  O_30 
ROOT
HETATM    1  C   UNK N   1      29.883  41.539  55.968  0.00  0.00     0.028 C 
HETATM    2  C   UNK N   1      29.459  41.465  54.463  0.00  0.00     0.123 C 
HETATM    3  C   UNK N   1      28.847  40.103  54.113  0.00  0.00     0.034 C 
HETATM    4  C   UNK N   1      27.614  39.862  54.960  0.00  0.00     0.035 C 
HETATM    5  C   UNK N   1      27.955  39.857  56.456  0.00  0.00     0.131 C 
HETATM    6  O   UNK N   1      28.736  38.716  56.781  0.00  0.00    -0.372 OA
HETATM    7  C   UNK N   1      28.339  38.031  57.982  0.00  0.00     0.080 C 
HETATM    8  C   UNK N   1      29.599  37.313  58.504  0.00  0.00     0.048 C 
HETATM    9  C   UNK N   1      27.307  36.956  57.589  0.00  0.00     0.048 C 
HETATM   10  C   UNK N   1      27.713  38.952  59.121  0.00  0.00     0.152 C 
HETATM   11  C   UNK N   1      28.491  40.244  59.489  0.00  0.00     0.035 C 
HETATM   12  C   UNK N   1      29.314  40.896  58.361  0.00  0.00     0.015 C 
HETATM   13  C   UNK N   1      28.677  41.161  56.952  0.00  0.00    -0.011 C 
HETATM   14  C   UNK N   1      27.623  42.293  57.051  0.00  0.00     0.018 C 
ENDROOT
BRANCH   1  15
HETATM   15  C   UNK N   1      30.490  42.947  56.293  0.00  0.00     0.035 C 
BRANCH  15  16
HETATM   16  C   UNK N   1      31.221  43.041  57.615  0.00  0.00    -0.022 C 
HETATM   17  C   UNK N   1      31.039  44.004  58.561  0.00  0.00    -0.067 C 
HETATM   18  C   UNK N   1      30.020  45.122  58.332  0.00  0.00     0.080 C 
HETATM   19  C   UNK N   1      31.836  44.064  59.910  0.00  0.00     0.029 C 
HETATM   20  C   UNK N   1      29.126  45.146  59.534  0.00  0.00     0.135 C 
HETATM   21  C   UNK N   1      30.724  46.474  58.122  0.00  0.00     0.022 C 
HETATM   22  O   UNK N   1      27.918  45.004  59.419  0.00  0.00    -0.297 OA
HETATM   23  C   UNK N   1      29.756  45.292  60.882  0.00  0.00     0.086 C 
HETATM   24  C   UNK N   1      30.799  44.165  61.100  0.00  0.00     0.030 C 
HETATM   25  C   UNK N   1      31.500  44.420  62.462  0.00  0.00     0.123 C 
HETATM   26  C   UNK N   1      32.554  43.351  62.754  0.00  0.00     0.033 C 
HETATM   27  C   UNK N   1      33.588  43.320  61.623  0.00  0.00     0.012 C 
HETATM   28  C   UNK N   1      32.961  42.977  60.235  0.00  0.00    -0.040 C 
HETATM   29  C   UNK N   1      34.138  43.067  59.225  0.00  0.00     0.015 C 
HETATM   30  C   UNK N   1      32.439  41.508  60.309  0.00  0.00     0.015 C 
BRANCH  25  31
HETATM   31  O   UNK N   1      32.111  45.688  62.458  0.00  0.00    -0.395 OA
HETATM   32  H   UNK N   1      33.090  45.540  62.539  0.00  0.00     0.210 HD
ENDBRANCH  25  31
ENDBRANCH  15  16
ENDBRANCH   1  15
BRANCH   2  33
HETATM   33  O   UNK N   1      30.540  41.701  53.598  0.00  0.00    -0.395 OA
HETATM   34  H   UNK N   1      31.056  40.857  53.517  0.00  0.00     0.210 HD
ENDBRANCH   2  33
BRANCH  10  35
HETATM   35  O   UNK N   1      27.394  38.218  60.278  0.00  0.00    -0.393 OA
HETATM   36  H   UNK N   1      26.425  38.331  60.460  0.00  0.00     0.210 HD
ENDBRANCH  10  35
TORSDOF 5
ENDMDL
