MODEL 1
REMARK VINA RESULT:      -7.6      0.000      0.000
REMARK  5 active torsions:
REMARK  status: ('A' for Active; 'I' for Inactive)
REMARK    1  A    between atoms: C_4  and  O_5 
REMARK    2  A    between atoms: C_7  and  O_8 
REMARK    3  A    between atoms: C_10  and  O_11 
REMARK    4  A    between atoms: C_16  and  C_18 
REMARK    5  A    between atoms: C_21  and  O_22 
ROOT
HETATM    1  O   UNK N   1      40.422  47.382  47.290  0.00  0.00    -0.287 OA
HETATM    2  C   UNK N   1      40.888  46.327  47.671  0.00  0.00     0.190 A 
HETATM    3  C   UNK N   1      41.388  45.350  46.766  0.00  0.00     0.084 A 
HETATM    4  C   UNK N   1      41.410  45.489  45.337  0.00  0.00     0.118 A 
HETATM    5  C   UNK N   1      41.963  44.454  44.548  0.00  0.00     0.133 A 
HETATM    6  C   UNK N   1      42.485  43.298  45.142  0.00  0.00     0.106 A 
HETATM    7  C   UNK N   1      42.443  43.160  46.534  0.00  0.00     0.078 A 
HETATM    8  C   UNK N   1      41.903  44.159  47.334  0.00  0.00     0.096 A 
HETATM    9  O   UNK N   1      41.892  43.966  48.647  0.00  0.00    -0.309 OA
HETATM   10  C   UNK N   1      41.446  44.866  49.513  0.00  0.00     0.090 A 
HETATM   11  C   UNK N   1      40.936  46.081  49.045  0.00  0.00     0.094 A 
ENDROOT
BRANCH  10  12
HETATM   12  C   UNK N   1      41.501  44.534  50.958  0.00  0.00    -0.002 A 
HETATM   13  C   UNK N   1      41.080  43.261  51.384  0.00  0.00     0.017 A 
HETATM   14  C   UNK N   1      41.111  42.920  52.736  0.00  0.00     0.037 A 
HETATM   15  C   UNK N   1      41.587  43.837  53.682  0.00  0.00     0.065 A 
HETATM   16  C   UNK N   1      42.025  45.099  53.267  0.00  0.00     0.037 A 
HETATM   17  C   UNK N   1      41.974  45.453  51.916  0.00  0.00     0.017 A 
BRANCH  15  18
HETATM   18  O   UNK N   1      41.629  43.514  54.991  0.00  0.00    -0.361 OA
HETATM   19  H   UNK N   1      41.591  42.593  55.286  0.00  0.00     0.217 HD
ENDBRANCH  15  18
ENDBRANCH  10  12
BRANCH   4  20
HETATM   20  O   UNK N   1      40.926  46.575  44.685  0.00  0.00    -0.357 OA
HETATM   21  H   UNK N   1      41.271  46.963  43.877  0.00  0.00     0.218 HD
ENDBRANCH   4  20
BRANCH   6  22
HETATM   22  O   UNK N   1      43.022  42.333  44.345  0.00  0.00    -0.353 OA
HETATM   23  C   UNK N   1      44.332  41.898  44.402  0.00  0.00     0.210 C 
ENDBRANCH   6  22
BRANCH   5  24
HETATM   24  O   UNK N   1      42.000  44.564  43.200  0.00  0.00    -0.356 OA
HETATM   25  H   UNK N   1      42.224  45.388  42.748  0.00  0.00     0.218 HD
ENDBRANCH   5  24
TORSDOF 5
ENDMDL
MODEL 2
REMARK VINA RESULT:      -7.1      2.975      3.294
REMARK  5 active torsions:
REMARK  status: ('A' for Active; 'I' for Inactive)
REMARK    1  A    between atoms: C_4  and  O_5 
REMARK    2  A    between atoms: C_7  and  O_8 
REMARK    3  A    between atoms: C_10  and  O_11 
REMARK    4  A    between atoms: C_16  and  C_18 
REMARK    5  A    between atoms: C_21  and  O_22 
ROOT
HETATM    1  O   UNK N   1      37.602  44.992  47.616  0.00  0.00    -0.287 OA
HETATM    2  C   UNK N   1      38.680  45.329  48.063  0.00  0.00     0.190 A 
HETATM    3  C   UNK N   1      39.549  46.210  47.360  0.00  0.00     0.084 A 
HETATM    4  C   UNK N   1      39.264  46.797  46.081  0.00  0.00     0.118 A 
HETATM    5  C   UNK N   1      40.201  47.683  45.501  0.00  0.00     0.133 A 
HETATM    6  C   UNK N   1      41.399  47.992  46.155  0.00  0.00     0.106 A 
HETATM    7  C   UNK N   1      41.680  47.402  47.393  0.00  0.00     0.078 A 
HETATM    8  C   UNK N   1      40.780  46.525  47.985  0.00  0.00     0.096 A 
HETATM    9  O   UNK N   1      41.106  45.998  49.159  0.00  0.00    -0.309 OA
HETATM   10  C   UNK N   1      40.310  45.187  49.842  0.00  0.00     0.090 A 
HETATM   11  C   UNK N   1      39.064  44.835  49.311  0.00  0.00     0.094 A 
ENDROOT
BRANCH  10  12
HETATM   12  C   UNK N   1      40.786  44.676  51.150  0.00  0.00    -0.002 A 
HETATM   13  C   UNK N   1      40.190  43.522  51.692  0.00  0.00     0.017 A 
HETATM   14  C   UNK N   1      40.608  43.021  52.925  0.00  0.00     0.037 A 
HETATM   15  C   UNK N   1      41.647  43.648  53.624  0.00  0.00     0.065 A 
HETATM   16  C   UNK N   1      42.258  44.785  53.086  0.00  0.00     0.037 A 
HETATM   17  C   UNK N   1      41.827  45.305  51.862  0.00  0.00     0.017 A 
BRANCH  15  18
HETATM   18  O   UNK N   1      42.065  43.166  54.812  0.00  0.00    -0.361 OA
HETATM   19  H   UNK N   1      42.189  42.217  54.958  0.00  0.00     0.217 HD
ENDBRANCH  15  18
ENDBRANCH  10  12
BRANCH   4  20
HETATM   20  O   UNK N   1      38.128  46.551  45.383  0.00  0.00    -0.357 OA
HETATM   21  H   UNK N   1      37.929  45.769  44.861  0.00  0.00     0.218 HD
ENDBRANCH   4  20
BRANCH   6  22
HETATM   22  O   UNK N   1      42.266  48.862  45.567  0.00  0.00    -0.353 OA
HETATM   23  C   UNK N   1      43.526  49.168  46.044  0.00  0.00     0.210 C 
ENDBRANCH   6  22
BRANCH   5  24
HETATM   24  O   UNK N   1      39.953  48.253  44.299  0.00  0.00    -0.356 OA
HETATM   25  H   UNK N   1      39.619  49.155  44.206  0.00  0.00     0.218 HD
ENDBRANCH   5  24
TORSDOF 5
ENDMDL
MODEL 3
REMARK VINA RESULT:      -6.9      3.441      7.210
REMARK  5 active torsions:
REMARK  status: ('A' for Active; 'I' for Inactive)
REMARK    1  A    between atoms: C_4  and  O_5 
REMARK    2  A    between atoms: C_7  and  O_8 
REMARK    3  A    between atoms: C_10  and  O_11 
REMARK    4  A    between atoms: C_16  and  C_18 
REMARK    5  A    between atoms: C_21  and  O_22 
ROOT
HETATM    1  O   UNK N   1      38.421  46.405  48.306  0.00  0.00    -0.287 OA
HETATM    2  C   UNK N   1      39.154  46.533  47.346  0.00  0.00     0.190 A 
HETATM    3  C   UNK N   1      40.193  45.604  47.058  0.00  0.00     0.084 A 
HETATM    4  C   UNK N   1      40.488  44.434  47.837  0.00  0.00     0.118 A 
HETATM    5  C   UNK N   1      41.531  43.572  47.426  0.00  0.00     0.133 A 
HETATM    6  C   UNK N   1      42.278  43.846  46.274  0.00  0.00     0.106 A 
HETATM    7  C   UNK N   1      41.998  44.999  45.530  0.00  0.00     0.078 A 
HETATM    8  C   UNK N   1      40.982  45.864  45.911  0.00  0.00     0.096 A 
HETATM    9  O   UNK N   1      40.768  46.940  45.163  0.00  0.00    -0.309 OA
HETATM   10  C   UNK N   1      39.799  47.813  45.400  0.00  0.00     0.090 A 
HETATM   11  C   UNK N   1      38.956  47.626  46.501  0.00  0.00     0.094 A 
ENDROOT
BRANCH  10  12
HETATM   12  C   UNK N   1      39.656  48.968  44.480  0.00  0.00    -0.002 A 
HETATM   13  C   UNK N   1      40.462  50.104  44.678  0.00  0.00     0.017 A 
HETATM   14  C   UNK N   1      40.347  51.210  43.836  0.00  0.00     0.037 A 
HETATM   15  C   UNK N   1      39.442  51.189  42.767  0.00  0.00     0.065 A 
HETATM   16  C   UNK N   1      38.648  50.058  42.551  0.00  0.00     0.037 A 
HETATM   17  C   UNK N   1      38.744  48.956  43.406  0.00  0.00     0.017 A 
BRANCH  15  18
HETATM   18  O   UNK N   1      39.329  52.250  41.942  0.00  0.00    -0.361 OA
HETATM   19  H   UNK N   1      39.319  53.157  42.282  0.00  0.00     0.217 HD
ENDBRANCH  15  18
ENDBRANCH  10  12
BRANCH   4  20
HETATM   20  O   UNK N   1      39.812  44.097  48.963  0.00  0.00    -0.357 OA
HETATM   21  H   UNK N   1      39.010  43.572  49.019  0.00  0.00     0.218 HD
ENDBRANCH   4  20
BRANCH   6  22
HETATM   22  O   UNK N   1      43.264  42.981  45.907  0.00  0.00    -0.353 OA
HETATM   23  C   UNK N   1      43.533  42.595  44.608  0.00  0.00     0.210 C 
ENDBRANCH   6  22
BRANCH   5  24
HETATM   24  O   UNK N   1      41.824  42.461  48.140  0.00  0.00    -0.356 OA
HETATM   25  H   UNK N   1      41.661  41.568  47.809  0.00  0.00     0.218 HD
ENDBRANCH   5  24
TORSDOF 5
ENDMDL
MODEL 4
REMARK VINA RESULT:      -6.4      3.199      4.211
REMARK  5 active torsions:
REMARK  status: ('A' for Active; 'I' for Inactive)
REMARK    1  A    between atoms: C_4  and  O_5 
REMARK    2  A    between atoms: C_7  and  O_8 
REMARK    3  A    between atoms: C_10  and  O_11 
REMARK    4  A    between atoms: C_16  and  C_18 
REMARK    5  A    between atoms: C_21  and  O_22 
ROOT
HETATM    1  O   UNK N   1      43.757  48.424  47.244  0.00  0.00    -0.287 OA
HETATM    2  C   UNK N   1      42.703  47.857  47.453  0.00  0.00     0.190 A 
HETATM    3  C   UNK N   1      41.573  48.027  46.606  0.00  0.00     0.084 A 
HETATM    4  C   UNK N   1      41.541  48.855  45.433  0.00  0.00     0.118 A 
HETATM    5  C   UNK N   1      40.360  48.914  44.658  0.00  0.00     0.133 A 
HETATM    6  C   UNK N   1      39.225  48.179  45.020  0.00  0.00     0.106 A 
HETATM    7  C   UNK N   1      39.255  47.388  46.175  0.00  0.00     0.078 A 
HETATM    8  C   UNK N   1      40.401  47.313  46.957  0.00  0.00     0.096 A 
HETATM    9  O   UNK N   1      40.364  46.547  48.040  0.00  0.00    -0.309 OA
HETATM   10  C   UNK N   1      41.407  46.361  48.838  0.00  0.00     0.090 A 
HETATM   11  C   UNK N   1      42.614  47.009  48.558  0.00  0.00     0.094 A 
ENDROOT
BRANCH  10  12
HETATM   12  C   UNK N   1      41.241  45.467  50.011  0.00  0.00    -0.002 A 
HETATM   13  C   UNK N   1      42.038  45.679  51.150  0.00  0.00     0.017 A 
HETATM   14  C   UNK N   1      41.913  44.852  52.266  0.00  0.00     0.037 A 
HETATM   15  C   UNK N   1      40.971  43.815  52.272  0.00  0.00     0.065 A 
HETATM   16  C   UNK N   1      40.161  43.607  51.151  0.00  0.00     0.037 A 
HETATM   17  C   UNK N   1      40.299  44.419  50.021  0.00  0.00     0.017 A 
BRANCH  15  18
HETATM   18  O   UNK N   1      40.836  43.015  53.349  0.00  0.00    -0.361 OA
HETATM   19  H   UNK N   1      41.502  42.996  54.052  0.00  0.00     0.217 HD
ENDBRANCH  15  18
ENDBRANCH  10  12
BRANCH   4  20
HETATM   20  O   UNK N   1      42.596  49.596  45.015  0.00  0.00    -0.357 OA
HETATM   21  H   UNK N   1      43.313  49.308  44.443  0.00  0.00     0.218 HD
ENDBRANCH   4  20
BRANCH   6  22
HETATM   22  O   UNK N   1      38.114  48.254  44.235  0.00  0.00    -0.353 OA
HETATM   23  C   UNK N   1      37.553  49.427  43.767  0.00  0.00     0.210 C 
ENDBRANCH   6  22
BRANCH   5  24
HETATM   24  O   UNK N   1      40.307  49.683  43.546  0.00  0.00    -0.356 OA
HETATM   25  H   UNK N   1      39.929  50.572  43.542  0.00  0.00     0.218 HD
ENDBRANCH   5  24
TORSDOF 5
ENDMDL
MODEL 5
REMARK VINA RESULT:      -6.0      3.014      3.735
REMARK  5 active torsions:
REMARK  status: ('A' for Active; 'I' for Inactive)
REMARK    1  A    between atoms: C_4  and  O_5 
REMARK    2  A    between atoms: C_7  and  O_8 
REMARK    3  A    between atoms: C_10  and  O_11 
REMARK    4  A    between atoms: C_16  and  C_18 
REMARK    5  A    between atoms: C_21  and  O_22 
ROOT
HETATM    1  O   UNK N   1      44.329  47.767  49.519  0.00  0.00    -0.287 OA
HETATM    2  C   UNK N   1      43.255  47.223  49.352  0.00  0.00     0.190 A 
HETATM    3  C   UNK N   1      42.476  47.433  48.180  0.00  0.00     0.084 A 
HETATM    4  C   UNK N   1      42.852  48.278  47.083  0.00  0.00     0.118 A 
HETATM    5  C   UNK N   1      41.999  48.377  45.959  0.00  0.00     0.133 A 
HETATM    6  C   UNK N   1      40.795  47.665  45.906  0.00  0.00     0.106 A 
HETATM    7  C   UNK N   1      40.424  46.858  46.988  0.00  0.00     0.078 A 
HETATM    8  C   UNK N   1      41.240  46.744  48.106  0.00  0.00     0.096 A 
HETATM    9  O   UNK N   1      40.830  45.963  49.098  0.00  0.00    -0.309 OA
HETATM   10  C   UNK N   1      41.543  45.740  50.193  0.00  0.00     0.090 A 
HETATM   11  C   UNK N   1      42.787  46.362  50.346  0.00  0.00     0.094 A 
ENDROOT
BRANCH  10  12
HETATM   12  C   UNK N   1      40.979  44.834  51.224  0.00  0.00    -0.002 A 
HETATM   13  C   UNK N   1      40.141  43.779  50.821  0.00  0.00     0.017 A 
HETATM   14  C   UNK N   1      39.586  42.914  51.766  0.00  0.00     0.037 A 
HETATM   15  C   UNK N   1      39.881  43.075  53.125  0.00  0.00     0.065 A 
HETATM   16  C   UNK N   1      40.728  44.111  53.535  0.00  0.00     0.037 A 
HETATM   17  C   UNK N   1      41.267  44.993  52.594  0.00  0.00     0.017 A 
BRANCH  15  18
HETATM   18  O   UNK N   1      39.358  42.240  54.045  0.00  0.00    -0.361 OA
HETATM   19  H   UNK N   1      39.911  41.818  54.719  0.00  0.00     0.217 HD
ENDBRANCH  15  18
ENDBRANCH  10  12
BRANCH   4  20
HETATM   20  O   UNK N   1      44.000  48.998  47.055  0.00  0.00    -0.357 OA
HETATM   21  H   UNK N   1      44.153  49.823  46.587  0.00  0.00     0.218 HD
ENDBRANCH   4  20
BRANCH   6  22
HETATM   22  O   UNK N   1      40.011  47.778  44.798  0.00  0.00    -0.353 OA
HETATM   23  C   UNK N   1      39.042  48.745  44.610  0.00  0.00     0.210 C 
ENDBRANCH   6  22
BRANCH   5  24
HETATM   24  O   UNK N   1      42.335  49.162  44.910  0.00  0.00    -0.356 OA
HETATM   25  H   UNK N   1      42.649  50.070  45.015  0.00  0.00     0.218 HD
ENDBRANCH   5  24
TORSDOF 5
ENDMDL
MODEL 6
REMARK VINA RESULT:      -5.7      3.517      7.747
REMARK  5 active torsions:
REMARK  status: ('A' for Active; 'I' for Inactive)
REMARK    1  A    between atoms: C_4  and  O_5 
REMARK    2  A    between atoms: C_7  and  O_8 
REMARK    3  A    between atoms: C_10  and  O_11 
REMARK    4  A    between atoms: C_16  and  C_18 
REMARK    5  A    between atoms: C_21  and  O_22 
ROOT
HETATM    1  O   UNK N   1      37.515  45.111  46.844  0.00  0.00    -0.287 OA
HETATM    2  C   UNK N   1      38.434  45.905  46.849  0.00  0.00     0.190 A 
HETATM    3  C   UNK N   1      39.478  45.849  47.815  0.00  0.00     0.084 A 
HETATM    4  C   UNK N   1      39.575  44.873  48.864  0.00  0.00     0.118 A 
HETATM    5  C   UNK N   1      40.681  44.908  49.743  0.00  0.00     0.133 A 
HETATM    6  C   UNK N   1      41.678  45.881  49.606  0.00  0.00     0.106 A 
HETATM    7  C   UNK N   1      41.569  46.841  48.593  0.00  0.00     0.078 A 
HETATM    8  C   UNK N   1      40.491  46.833  47.716  0.00  0.00     0.096 A 
HETATM    9  O   UNK N   1      40.445  47.772  46.780  0.00  0.00    -0.309 OA
HETATM   10  C   UNK N   1      39.493  47.839  45.859  0.00  0.00     0.090 A 
HETATM   11  C   UNK N   1      38.460  46.896  45.866  0.00  0.00     0.094 A 
ENDROOT
BRANCH  10  12
HETATM   12  C   UNK N   1      39.563  48.930  44.857  0.00  0.00    -0.002 A 
HETATM   13  C   UNK N   1      38.711  48.887  43.738  0.00  0.00     0.017 A 
HETATM   14  C   UNK N   1      38.758  49.893  42.772  0.00  0.00     0.037 A 
HETATM   15  C   UNK N   1      39.638  50.971  42.922  0.00  0.00     0.065 A 
HETATM   16  C   UNK N   1      40.477  51.033  44.040  0.00  0.00     0.037 A 
HETATM   17  C   UNK N   1      40.450  50.016  44.998  0.00  0.00     0.017 A 
BRANCH  15  18
HETATM   18  O   UNK N   1      39.685  51.953  41.999  0.00  0.00    -0.361 OA
HETATM   19  H   UNK N   1      38.895  52.226  41.510  0.00  0.00     0.217 HD
ENDBRANCH  15  18
ENDBRANCH  10  12
BRANCH   4  20
HETATM   20  O   UNK N   1      38.653  43.899  49.064  0.00  0.00    -0.357 OA
HETATM   21  H   UNK N   1      38.073  43.801  49.824  0.00  0.00     0.218 HD
ENDBRANCH   4  20
BRANCH   6  22
HETATM   22  O   UNK N   1      42.735  45.868  50.466  0.00  0.00    -0.353 OA
HETATM   23  C   UNK N   1      42.633  45.882  51.843  0.00  0.00     0.210 C 
ENDBRANCH   6  22
BRANCH   5  24
HETATM   24  O   UNK N   1      40.798  43.996  50.736  0.00  0.00    -0.356 OA
HETATM   25  H   UNK N   1      41.467  44.060  51.430  0.00  0.00     0.218 HD
ENDBRANCH   5  24
TORSDOF 5
ENDMDL
MODEL 7
REMARK VINA RESULT:      -5.7      2.749      7.262
REMARK  5 active torsions:
REMARK  status: ('A' for Active; 'I' for Inactive)
REMARK    1  A    between atoms: C_4  and  O_5 
REMARK    2  A    between atoms: C_7  and  O_8 
REMARK    3  A    between atoms: C_10  and  O_11 
REMARK    4  A    between atoms: C_16  and  C_18 
REMARK    5  A    between atoms: C_21  and  O_22 
ROOT
HETATM    1  O   UNK N   1      41.722  43.367  45.910  0.00  0.00    -0.287 OA
HETATM    2  C   UNK N   1      41.440  44.397  46.489  0.00  0.00     0.190 A 
HETATM    3  C   UNK N   1      41.359  44.469  47.907  0.00  0.00     0.084 A 
HETATM    4  C   UNK N   1      41.601  43.372  48.801  0.00  0.00     0.118 A 
HETATM    5  C   UNK N   1      41.518  43.583  50.197  0.00  0.00     0.133 A 
HETATM    6  C   UNK N   1      41.200  44.844  50.715  0.00  0.00     0.106 A 
HETATM    7  C   UNK N   1      40.946  45.906  49.838  0.00  0.00     0.078 A 
HETATM    8  C   UNK N   1      41.018  45.727  48.463  0.00  0.00     0.096 A 
HETATM    9  O   UNK N   1      40.765  46.773  47.686  0.00  0.00    -0.309 OA
HETATM   10  C   UNK N   1      40.847  46.736  46.363  0.00  0.00     0.090 A 
HETATM   11  C   UNK N   1      41.197  45.541  45.726  0.00  0.00     0.094 A 
ENDROOT
BRANCH  10  12
HETATM   12  C   UNK N   1      40.552  47.979  45.609  0.00  0.00    -0.002 A 
HETATM   13  C   UNK N   1      41.577  48.925  45.422  0.00  0.00     0.017 A 
HETATM   14  C   UNK N   1      41.331  50.108  44.725  0.00  0.00     0.037 A 
HETATM   15  C   UNK N   1      40.064  50.354  44.181  0.00  0.00     0.065 A 
HETATM   16  C   UNK N   1      39.043  49.412  44.345  0.00  0.00     0.037 A 
HETATM   17  C   UNK N   1      39.279  48.235  45.063  0.00  0.00     0.017 A 
BRANCH  15  18
HETATM   18  O   UNK N   1      39.819  51.490  43.498  0.00  0.00    -0.361 OA
HETATM   19  H   UNK N   1      38.952  51.666  43.103  0.00  0.00     0.217 HD
ENDBRANCH  15  18
ENDBRANCH  10  12
BRANCH   4  20
HETATM   20  O   UNK N   1      41.914  42.122  48.381  0.00  0.00    -0.357 OA
HETATM   21  H   UNK N   1      42.425  41.886  47.601  0.00  0.00     0.218 HD
ENDBRANCH   4  20
BRANCH   6  22
HETATM   22  O   UNK N   1      41.145  45.006  52.067  0.00  0.00    -0.353 OA
HETATM   23  C   UNK N   1      42.156  45.542  52.841  0.00  0.00     0.210 C 
ENDBRANCH   6  22
BRANCH   5  24
HETATM   24  O   UNK N   1      41.747  42.566  51.060  0.00  0.00    -0.356 OA
HETATM   25  H   UNK N   1      41.289  42.486  51.907  0.00  0.00     0.218 HD
ENDBRANCH   5  24
TORSDOF 5
ENDMDL
MODEL 8
REMARK VINA RESULT:      -5.6     12.881     16.237
REMARK  5 active torsions:
REMARK  status: ('A' for Active; 'I' for Inactive)
REMARK    1  A    between atoms: C_4  and  O_5 
REMARK    2  A    between atoms: C_7  and  O_8 
REMARK    3  A    between atoms: C_10  and  O_11 
REMARK    4  A    between atoms: C_16  and  C_18 
REMARK    5  A    between atoms: C_21  and  O_22 
ROOT
HETATM    1  O   UNK N   1      31.949  48.886  41.995  0.00  0.00    -0.287 OA
HETATM    2  C   UNK N   1      31.665  50.064  41.909  0.00  0.00     0.190 A 
HETATM    3  C   UNK N   1      32.198  51.037  42.799  0.00  0.00     0.084 A 
HETATM    4  C   UNK N   1      33.113  50.759  43.869  0.00  0.00     0.118 A 
HETATM    5  C   UNK N   1      33.593  51.824  44.666  0.00  0.00     0.133 A 
HETATM    6  C   UNK N   1      33.185  53.141  44.427  0.00  0.00     0.106 A 
HETATM    7  C   UNK N   1      32.277  53.405  43.394  0.00  0.00     0.078 A 
HETATM    8  C   UNK N   1      31.787  52.378  42.597  0.00  0.00     0.096 A 
HETATM    9  O   UNK N   1      30.928  52.693  41.635  0.00  0.00    -0.309 OA
HETATM   10  C   UNK N   1      30.428  51.808  40.784  0.00  0.00     0.090 A 
HETATM   11  C   UNK N   1      30.793  50.462  40.894  0.00  0.00     0.094 A 
ENDROOT
BRANCH  10  12
HETATM   12  C   UNK N   1      29.487  52.291  39.744  0.00  0.00    -0.002 A 
HETATM   13  C   UNK N   1      29.922  53.266  38.828  0.00  0.00     0.017 A 
HETATM   14  C   UNK N   1      29.059  53.748  37.843  0.00  0.00     0.037 A 
HETATM   15  C   UNK N   1      27.756  53.245  37.742  0.00  0.00     0.065 A 
HETATM   16  C   UNK N   1      27.319  52.263  38.637  0.00  0.00     0.037 A 
HETATM   17  C   UNK N   1      28.173  51.794  39.639  0.00  0.00     0.017 A 
BRANCH  15  18
HETATM   18  O   UNK N   1      26.917  53.698  36.788  0.00  0.00    -0.361 OA
HETATM   19  H   UNK N   1      25.956  53.665  36.903  0.00  0.00     0.217 HD
ENDBRANCH  15  18
ENDBRANCH  10  12
BRANCH   4  20
HETATM   20  O   UNK N   1      33.557  49.513  44.166  0.00  0.00    -0.357 OA
HETATM   21  H   UNK N   1      33.026  48.763  44.446  0.00  0.00     0.218 HD
ENDBRANCH   4  20
BRANCH   6  22
HETATM   22  O   UNK N   1      33.684  54.139  45.209  0.00  0.00    -0.353 OA
HETATM   23  C   UNK N   1      34.054  55.390  44.756  0.00  0.00     0.210 C 
ENDBRANCH   6  22
BRANCH   5  24
HETATM   24  O   UNK N   1      34.461  51.588  45.677  0.00  0.00    -0.356 OA
HETATM   25  H   UNK N   1      34.599  52.209  46.404  0.00  0.00     0.218 HD
ENDBRANCH   5  24
TORSDOF 5
ENDMDL
MODEL 9
REMARK VINA RESULT:      -5.5     15.747     17.873
REMARK  5 active torsions:
REMARK  status: ('A' for Active; 'I' for Inactive)
REMARK    1  A    between atoms: C_4  and  O_5 
REMARK    2  A    between atoms: C_7  and  O_8 
REMARK    3  A    between atoms: C_10  and  O_11 
REMARK    4  A    between atoms: C_16  and  C_18 
REMARK    5  A    between atoms: C_21  and  O_22 
ROOT
HETATM    1  O   UNK N   1      26.015  55.815  42.519  0.00  0.00    -0.287 OA
HETATM    2  C   UNK N   1      27.000  55.184  42.191  0.00  0.00     0.190 A 
HETATM    3  C   UNK N   1      26.990  54.285  41.088  0.00  0.00     0.084 A 
HETATM    4  C   UNK N   1      25.854  54.027  40.249  0.00  0.00     0.118 A 
HETATM    5  C   UNK N   1      25.984  53.130  39.163  0.00  0.00     0.133 A 
HETATM    6  C   UNK N   1      27.201  52.492  38.899  0.00  0.00     0.106 A 
HETATM    7  C   UNK N   1      28.300  52.733  39.733  0.00  0.00     0.078 A 
HETATM    8  C   UNK N   1      28.201  53.606  40.808  0.00  0.00     0.096 A 
HETATM    9  O   UNK N   1      29.279  53.790  41.560  0.00  0.00    -0.309 OA
HETATM   10  C   UNK N   1      29.320  54.632  42.584  0.00  0.00     0.090 A 
HETATM   11  C   UNK N   1      28.176  55.362  42.923  0.00  0.00     0.094 A 
ENDROOT
BRANCH  10  12
HETATM   12  C   UNK N   1      30.591  54.757  43.338  0.00  0.00    -0.002 A 
HETATM   13  C   UNK N   1      30.626  54.367  44.689  0.00  0.00     0.017 A 
HETATM   14  C   UNK N   1      31.804  54.480  45.429  0.00  0.00     0.037 A 
HETATM   15  C   UNK N   1      32.972  54.960  44.824  0.00  0.00     0.065 A 
HETATM   16  C   UNK N   1      32.952  55.334  43.476  0.00  0.00     0.037 A 
HETATM   17  C   UNK N   1      31.769  55.244  42.737  0.00  0.00     0.017 A 
BRANCH  15  18
HETATM   18  O   UNK N   1      34.117  55.065  45.527  0.00  0.00    -0.361 OA
HETATM   19  H   UNK N   1      34.601  55.902  45.584  0.00  0.00     0.217 HD
ENDBRANCH  15  18
ENDBRANCH  10  12
BRANCH   4  20
HETATM   20  O   UNK N   1      24.642  54.604  40.436  0.00  0.00    -0.357 OA
HETATM   21  H   UNK N   1      24.438  55.344  41.014  0.00  0.00     0.218 HD
ENDBRANCH   4  20
BRANCH   6  22
HETATM   22  O   UNK N   1      27.285  51.648  37.833  0.00  0.00    -0.353 OA
HETATM   23  C   UNK N   1      27.611  52.029  36.546  0.00  0.00     0.210 C 
ENDBRANCH   6  22
BRANCH   5  24
HETATM   24  O   UNK N   1      24.929  52.875  38.355  0.00  0.00    -0.356 OA
HETATM   25  H   UNK N   1      24.825  52.041  37.878  0.00  0.00     0.218 HD
ENDBRANCH   5  24
TORSDOF 5
ENDMDL
