MODEL 1
REMARK VINA RESULT:      -7.0      0.000      0.000
REMARK  10 active torsions:
REMARK  status: ('A' for Active; 'I' for Inactive)
REMARK    1  A    between atoms: C_3  and  O_4 
REMARK    2  A    between atoms: C_8  and  C_10 
REMARK    3  A    between atoms: C_11  and  C_12 
REMARK       I    between atoms: C_12  and  N_14 
REMARK    4  A    between atoms: N_14  and  C_15 
REMARK    5  A    between atoms: C_15  and  C_16 
REMARK    6  A    between atoms: C_15  and  C_20 
REMARK    7  A    between atoms: C_16  and  O_18 
REMARK    8  A    between atoms: C_20  and  C_21 
REMARK    9  A    between atoms: C_21  and  C_22 
REMARK   10  A    between atoms: C_22  and  N_23 
REMARK       I    between atoms: N_23  and  C_24 
REMARK       I    between atoms: C_24  and  N_28 
ROOT
HETATM    1  C   UNK N   1      39.965  47.587  46.395  0.00  0.00     0.182 C 
ENDROOT
BRANCH   1   2
HETATM    2  N   UNK N   1      39.862  47.995  44.989  0.00  0.00    -0.343 N 
HETATM    3  C   UNK N   1      39.306  49.168  44.574  0.00  0.00     0.241 C 
HETATM    4  O   UNK N   1      38.794  49.931  45.374  0.00  0.00    -0.269 OA
HETATM    5  H   UNK N   1      40.249  47.380  44.260  0.00  0.00     0.163 HD
BRANCH   3   6
HETATM    6  C   UNK N   1      39.357  49.502  43.128  0.00  0.00     0.075 C 
HETATM    7  C   UNK N   1      38.289  49.644  42.318  0.00  0.00     0.017 C 
BRANCH   7   8
HETATM    8  C   UNK N   1      36.872  49.526  42.736  0.00  0.00    -0.035 A 
HETATM    9  C   UNK N   1      36.287  48.257  42.677  0.00  0.00     0.014 A 
HETATM   10  C   UNK N   1      34.952  48.071  43.028  0.00  0.00     0.039 A 
HETATM   11  C   UNK N   1      34.178  49.157  43.479  0.00  0.00     0.085 A 
HETATM   12  C   UNK N   1      34.771  50.429  43.565  0.00  0.00     0.045 A 
HETATM   13 Br   UNK N   1      33.760  51.925  44.201  0.00  0.00    -0.048 Br
HETATM   14  C   UNK N   1      36.109  50.614  43.190  0.00  0.00     0.033 A 
BRANCH  11  15
HETATM   15  O   UNK N   1      32.874  49.008  43.840  0.00  0.00    -0.355 OA
HETATM   16  C   UNK N   1      31.797  49.120  42.982  0.00  0.00     0.210 C 
ENDBRANCH  11  15
ENDBRANCH   7   8
ENDBRANCH   3   6
ENDBRANCH   1   2
BRANCH   1  17
HETATM   17  C   UNK N   1      38.980  46.464  46.688  0.00  0.00     0.163 C 
HETATM   18  O   UNK N   1      38.579  45.757  45.775  0.00  0.00    -0.648 OA
BRANCH  17  19
HETATM   19  O   UNK N   1      38.559  46.219  47.951  0.00  0.00    -0.775 OA
HETATM   20  H   UNK N   1      39.025  46.576  48.720  0.00  0.00     0.167 HD
ENDBRANCH  17  19
ENDBRANCH   1  17
BRANCH   1  21
HETATM   21  C   UNK N   1      41.402  47.094  46.777  0.00  0.00     0.038 C 
BRANCH  21  22
HETATM   22  C   UNK N   1      41.983  47.736  48.044  0.00  0.00     0.023 C 
BRANCH  22  23
HETATM   23  C   UNK N   1      42.369  46.742  49.142  0.00  0.00     0.138 C 
BRANCH  23  24
HETATM   24  N   UNK N   1      41.169  46.082  49.634  0.00  0.00    -0.227 N 
HETATM   25  C   UNK N   1      41.027  44.666  49.641  0.00  0.00     0.665 C 
HETATM   26  N   UNK N   1      41.978  43.914  49.216  0.00  0.00    -0.235 N 
HETATM   27  N   UNK N   1      39.823  44.089  50.130  0.00  0.00    -0.235 N 
HETATM   28  H   UNK N   1      41.887  42.886  49.219  0.00  0.00     0.174 HD
ATOM     29  HN  UNK N   1      42.837  44.340  48.868  1.00  0.00     0.174 HD
HETATM   30  H   UNK N   1      39.698  43.066  50.149  0.00  0.00     0.174 HD
HETATM   31  H   UNK N   1      39.060  44.691  50.469  0.00  0.00     0.174 HD
HETATM   32  H   UNK N   1      40.387  46.651  49.995  0.00  0.00     0.177 HD
ENDBRANCH  23  24
ENDBRANCH  22  23
ENDBRANCH  21  22
ENDBRANCH   1  21
TORSDOF 10
ENDMDL
MODEL 2
REMARK VINA RESULT:      -6.6      1.810      2.340
REMARK  10 active torsions:
REMARK  status: ('A' for Active; 'I' for Inactive)
REMARK    1  A    between atoms: C_3  and  O_4 
REMARK    2  A    between atoms: C_8  and  C_10 
REMARK    3  A    between atoms: C_11  and  C_12 
REMARK       I    between atoms: C_12  and  N_14 
REMARK    4  A    between atoms: N_14  and  C_15 
REMARK    5  A    between atoms: C_15  and  C_16 
REMARK    6  A    between atoms: C_15  and  C_20 
REMARK    7  A    between atoms: C_16  and  O_18 
REMARK    8  A    between atoms: C_20  and  C_21 
REMARK    9  A    between atoms: C_21  and  C_22 
REMARK   10  A    between atoms: C_22  and  N_23 
REMARK       I    between atoms: N_23  and  C_24 
REMARK       I    between atoms: C_24  and  N_28 
ROOT
HETATM    1  C   UNK N   1      39.820  47.514  46.532  0.00  0.00     0.182 C 
ENDROOT
BRANCH   1   2
HETATM    2  N   UNK N   1      39.774  47.920  45.123  0.00  0.00    -0.343 N 
HETATM    3  C   UNK N   1      39.290  49.118  44.690  0.00  0.00     0.241 C 
HETATM    4  O   UNK N   1      38.798  49.911  45.474  0.00  0.00    -0.269 OA
HETATM    5  H   UNK N   1      40.146  47.282  44.406  0.00  0.00     0.163 HD
BRANCH   3   6
HETATM    6  C   UNK N   1      39.394  49.442  43.245  0.00  0.00     0.075 C 
HETATM    7  C   UNK N   1      38.356  49.582  42.396  0.00  0.00     0.017 C 
BRANCH   7   8
HETATM    8  C   UNK N   1      36.925  49.471  42.764  0.00  0.00    -0.035 A 
HETATM    9  C   UNK N   1      36.334  48.206  42.680  0.00  0.00     0.014 A 
HETATM   10  C   UNK N   1      34.986  48.028  42.983  0.00  0.00     0.039 A 
HETATM   11  C   UNK N   1      34.204  49.118  43.410  0.00  0.00     0.085 A 
HETATM   12  C   UNK N   1      34.801  50.385  43.521  0.00  0.00     0.045 A 
HETATM   13 Br   UNK N   1      33.778  51.885  44.126  0.00  0.00    -0.048 Br
HETATM   14  C   UNK N   1      36.153  50.563  43.194  0.00  0.00     0.033 A 
BRANCH  11  15
HETATM   15  O   UNK N   1      32.887  48.975  43.725  0.00  0.00    -0.355 OA
HETATM   16  C   UNK N   1      31.842  49.093  42.829  0.00  0.00     0.210 C 
ENDBRANCH  11  15
ENDBRANCH   7   8
ENDBRANCH   3   6
ENDBRANCH   1   2
BRANCH   1  17
HETATM   17  C   UNK N   1      38.737  46.482  46.817  0.00  0.00     0.163 C 
HETATM   18  O   UNK N   1      38.461  46.200  47.974  0.00  0.00    -0.648 OA
BRANCH  17  19
HETATM   19  O   UNK N   1      38.058  45.888  45.809  0.00  0.00    -0.775 OA
HETATM   20  H   UNK N   1      37.824  46.368  45.002  0.00  0.00     0.167 HD
ENDBRANCH  17  19
ENDBRANCH   1  17
BRANCH   1  21
HETATM   21  C   UNK N   1      41.203  46.900  46.939  0.00  0.00     0.038 C 
BRANCH  21  22
HETATM   22  C   UNK N   1      41.884  46.071  45.842  0.00  0.00     0.023 C 
BRANCH  22  23
HETATM   23  C   UNK N   1      41.463  44.600  45.803  0.00  0.00     0.138 C 
BRANCH  23  24
HETATM   24  N   UNK N   1      42.486  43.791  46.448  0.00  0.00    -0.227 N 
HETATM   25  C   UNK N   1      43.198  42.770  45.758  0.00  0.00     0.665 C 
HETATM   26  N   UNK N   1      42.961  42.535  44.517  0.00  0.00    -0.235 N 
HETATM   27  N   UNK N   1      44.179  42.013  46.455  0.00  0.00    -0.235 N 
HETATM   28  H   UNK N   1      43.472  41.800  44.007  0.00  0.00     0.174 HD
ATOM     29  HN  UNK N   1      42.254  43.086  44.029  1.00  0.00     0.174 HD
HETATM   30  H   UNK N   1      44.710  41.271  45.976  0.00  0.00     0.174 HD
HETATM   31  H   UNK N   1      44.368  42.199  47.450  0.00  0.00     0.174 HD
HETATM   32  H   UNK N   1      42.713  43.956  47.441  0.00  0.00     0.177 HD
ENDBRANCH  23  24
ENDBRANCH  22  23
ENDBRANCH  21  22
ENDBRANCH   1  21
TORSDOF 10
ENDMDL
MODEL 3
REMARK VINA RESULT:      -6.2      7.667     12.097
REMARK  10 active torsions:
REMARK  status: ('A' for Active; 'I' for Inactive)
REMARK    1  A    between atoms: C_3  and  O_4 
REMARK    2  A    between atoms: C_8  and  C_10 
REMARK    3  A    between atoms: C_11  and  C_12 
REMARK       I    between atoms: C_12  and  N_14 
REMARK    4  A    between atoms: N_14  and  C_15 
REMARK    5  A    between atoms: C_15  and  C_16 
REMARK    6  A    between atoms: C_15  and  C_20 
REMARK    7  A    between atoms: C_16  and  O_18 
REMARK    8  A    between atoms: C_20  and  C_21 
REMARK    9  A    between atoms: C_21  and  C_22 
REMARK   10  A    between atoms: C_22  and  N_23 
REMARK       I    between atoms: N_23  and  C_24 
REMARK       I    between atoms: C_24  and  N_28 
ROOT
HETATM    1  C   UNK N   1      29.786  54.285  40.737  0.00  0.00     0.182 C 
ENDROOT
BRANCH   1   2
HETATM    2  N   UNK N   1      29.897  54.170  42.196  0.00  0.00    -0.343 N 
HETATM    3  C   UNK N   1      30.841  54.809  42.942  0.00  0.00     0.241 C 
HETATM    4  O   UNK N   1      31.706  55.481  42.408  0.00  0.00    -0.269 OA
HETATM    5  H   UNK N   1      29.213  53.592  42.705  0.00  0.00     0.163 HD
BRANCH   3   6
HETATM    6  C   UNK N   1      30.779  54.683  44.420  0.00  0.00     0.075 C 
HETATM    7  C   UNK N   1      31.398  53.738  45.154  0.00  0.00     0.017 C 
BRANCH   7   8
HETATM    8  C   UNK N   1      32.281  52.675  44.616  0.00  0.00    -0.035 A 
HETATM    9  C   UNK N   1      33.655  52.802  44.846  0.00  0.00     0.014 A 
HETATM   10  C   UNK N   1      34.550  51.857  44.349  0.00  0.00     0.039 A 
HETATM   11  C   UNK N   1      34.079  50.740  43.633  0.00  0.00     0.085 A 
HETATM   12  C   UNK N   1      32.696  50.596  43.424  0.00  0.00     0.045 A 
HETATM   13 Br   UNK N   1      32.015  49.076  42.480  0.00  0.00    -0.048 Br
HETATM   14  C   UNK N   1      31.802  51.561  43.907  0.00  0.00     0.033 A 
BRANCH  11  15
HETATM   15  O   UNK N   1      34.925  49.793  43.144  0.00  0.00    -0.355 OA
HETATM   16  C   UNK N   1      36.301  49.908  43.099  0.00  0.00     0.210 C 
ENDBRANCH  11  15
ENDBRANCH   7   8
ENDBRANCH   3   6
ENDBRANCH   1   2
BRANCH   1  17
HETATM   17  C   UNK N   1      29.830  52.905  40.096  0.00  0.00     0.163 C 
HETATM   18  O   UNK N   1      29.270  52.717  39.026  0.00  0.00    -0.648 OA
BRANCH  17  19
HETATM   19  O   UNK N   1      30.501  51.886  40.682  0.00  0.00    -0.775 OA
HETATM   20  H   UNK N   1      30.570  51.017  40.264  0.00  0.00     0.167 HD
ENDBRANCH  17  19
ENDBRANCH   1  17
BRANCH   1  21
HETATM   21  C   UNK N   1      28.464  54.995  40.286  0.00  0.00     0.038 C 
BRANCH  21  22
HETATM   22  C   UNK N   1      27.239  54.683  41.158  0.00  0.00     0.023 C 
BRANCH  22  23
HETATM   23  C   UNK N   1      26.236  53.718  40.522  0.00  0.00     0.138 C 
BRANCH  23  24
HETATM   24  N   UNK N   1      26.126  52.525  41.349  0.00  0.00    -0.227 N 
HETATM   25  C   UNK N   1      26.333  51.217  40.830  0.00  0.00     0.665 C 
HETATM   26  N   UNK N   1      26.639  51.047  39.594  0.00  0.00    -0.235 N 
HETATM   27  N   UNK N   1      26.201  50.096  41.695  0.00  0.00    -0.235 N 
HETATM   28  H   UNK N   1      26.794  50.103  39.208  0.00  0.00     0.174 HD
ATOM     29  HN  UNK N   1      26.730  51.860  38.984  1.00  0.00     0.174 HD
HETATM   30  H   UNK N   1      26.350  49.139  41.343  0.00  0.00     0.174 HD
HETATM   31  H   UNK N   1      25.954  50.232  42.685  0.00  0.00     0.174 HD
HETATM   32  H   UNK N   1      25.892  52.621  42.350  0.00  0.00     0.177 HD
ENDBRANCH  23  24
ENDBRANCH  22  23
ENDBRANCH  21  22
ENDBRANCH   1  21
TORSDOF 10
ENDMDL
MODEL 4
REMARK VINA RESULT:      -5.9      8.502     11.416
REMARK  10 active torsions:
REMARK  status: ('A' for Active; 'I' for Inactive)
REMARK    1  A    between atoms: C_3  and  O_4 
REMARK    2  A    between atoms: C_8  and  C_10 
REMARK    3  A    between atoms: C_11  and  C_12 
REMARK       I    between atoms: C_12  and  N_14 
REMARK    4  A    between atoms: N_14  and  C_15 
REMARK    5  A    between atoms: C_15  and  C_16 
REMARK    6  A    between atoms: C_15  and  C_20 
REMARK    7  A    between atoms: C_16  and  O_18 
REMARK    8  A    between atoms: C_20  and  C_21 
REMARK    9  A    between atoms: C_21  and  C_22 
REMARK   10  A    between atoms: C_22  and  N_23 
REMARK       I    between atoms: N_23  and  C_24 
REMARK       I    between atoms: C_24  and  N_28 
ROOT
HETATM    1  C   UNK N   1      31.877  50.942  41.967  0.00  0.00     0.182 C 
ENDROOT
BRANCH   1   2
HETATM    2  N   UNK N   1      31.464  51.751  43.119  0.00  0.00    -0.343 N 
HETATM    3  C   UNK N   1      32.331  52.401  43.945  0.00  0.00     0.241 C 
HETATM    4  O   UNK N   1      33.535  52.286  43.798  0.00  0.00    -0.269 OA
HETATM    5  H   UNK N   1      30.460  51.863  43.317  0.00  0.00     0.163 HD
BRANCH   3   6
HETATM    6  C   UNK N   1      31.773  53.267  45.015  0.00  0.00     0.075 C 
HETATM    7  C   UNK N   1      31.038  54.379  44.821  0.00  0.00     0.017 C 
BRANCH   7   8
HETATM    8  C   UNK N   1      30.628  54.918  43.502  0.00  0.00    -0.035 A 
HETATM    9  C   UNK N   1      31.642  55.336  42.633  0.00  0.00     0.014 A 
HETATM   10  C   UNK N   1      31.333  55.878  41.388  0.00  0.00     0.039 A 
HETATM   11  C   UNK N   1      29.992  55.985  40.972  0.00  0.00     0.085 A 
HETATM   12  C   UNK N   1      28.973  55.541  41.832  0.00  0.00     0.045 A 
HETATM   13 Br   UNK N   1      27.140  55.644  41.291  0.00  0.00    -0.048 Br
HETATM   14  C   UNK N   1      29.288  55.017  43.093  0.00  0.00     0.033 A 
BRANCH  11  15
HETATM   15  O   UNK N   1      29.657  56.500  39.757  0.00  0.00    -0.355 OA
HETATM   16  C   UNK N   1      29.664  57.844  39.438  0.00  0.00     0.210 C 
ENDBRANCH  11  15
ENDBRANCH   7   8
ENDBRANCH   3   6
ENDBRANCH   1   2
BRANCH   1  17
HETATM   17  C   UNK N   1      32.079  49.492  42.389  0.00  0.00     0.163 C 
HETATM   18  O   UNK N   1      31.320  48.630  41.969  0.00  0.00    -0.648 OA
BRANCH  17  19
HETATM   19  O   UNK N   1      33.100  49.139  43.203  0.00  0.00    -0.775 OA
HETATM   20  H   UNK N   1      33.683  48.396  42.995  0.00  0.00     0.167 HD
ENDBRANCH  17  19
ENDBRANCH   1  17
BRANCH   1  21
HETATM   21  C   UNK N   1      30.833  50.973  40.800  0.00  0.00     0.038 C 
BRANCH  21  22
HETATM   22  C   UNK N   1      30.303  52.371  40.453  0.00  0.00     0.023 C 
BRANCH  22  23
HETATM   23  C   UNK N   1      28.854  52.397  39.960  0.00  0.00     0.138 C 
BRANCH  23  24
HETATM   24  N   UNK N   1      28.222  51.121  40.260  0.00  0.00    -0.227 N 
HETATM   25  C   UNK N   1      26.913  51.030  40.810  0.00  0.00     0.665 C 
HETATM   26  N   UNK N   1      26.233  52.093  41.052  0.00  0.00    -0.235 N 
HETATM   27  N   UNK N   1      26.362  49.749  41.086  0.00  0.00    -0.235 N 
HETATM   28  H   UNK N   1      25.282  52.038  41.448  0.00  0.00     0.174 HD
ATOM     29  HN  UNK N   1      26.640  53.005  40.849  1.00  0.00     0.174 HD
HETATM   30  H   UNK N   1      25.414  49.657  41.481  0.00  0.00     0.174 HD
HETATM   31  H   UNK N   1      26.907  48.897  40.895  0.00  0.00     0.174 HD
HETATM   32  H   UNK N   1      28.733  50.244  40.070  0.00  0.00     0.177 HD
ENDBRANCH  23  24
ENDBRANCH  22  23
ENDBRANCH  21  22
ENDBRANCH   1  21
TORSDOF 10
ENDMDL
MODEL 5
REMARK VINA RESULT:      -5.8      4.564      8.141
REMARK  10 active torsions:
REMARK  status: ('A' for Active; 'I' for Inactive)
REMARK    1  A    between atoms: C_3  and  O_4 
REMARK    2  A    between atoms: C_8  and  C_10 
REMARK    3  A    between atoms: C_11  and  C_12 
REMARK       I    between atoms: C_12  and  N_14 
REMARK    4  A    between atoms: N_14  and  C_15 
REMARK    5  A    between atoms: C_15  and  C_16 
REMARK    6  A    between atoms: C_15  and  C_20 
REMARK    7  A    between atoms: C_16  and  O_18 
REMARK    8  A    between atoms: C_20  and  C_21 
REMARK    9  A    between atoms: C_21  and  C_22 
REMARK   10  A    between atoms: C_22  and  N_23 
REMARK       I    between atoms: N_23  and  C_24 
REMARK       I    between atoms: C_24  and  N_28 
ROOT
HETATM    1  C   UNK N   1      40.156  46.926  46.561  0.00  0.00     0.182 C 
ENDROOT
BRANCH   1   2
HETATM    2  N   UNK N   1      41.029  47.348  47.662  0.00  0.00    -0.343 N 
HETATM    3  C   UNK N   1      42.350  47.026  47.755  0.00  0.00     0.241 C 
HETATM    4  O   UNK N   1      42.871  46.294  46.932  0.00  0.00    -0.269 OA
HETATM    5  H   UNK N   1      40.641  47.944  48.407  0.00  0.00     0.163 HD
BRANCH   3   6
HETATM    6  C   UNK N   1      43.141  47.602  48.871  0.00  0.00     0.075 C 
HETATM    7  C   UNK N   1      43.090  47.202  50.157  0.00  0.00     0.017 C 
BRANCH   7   8
HETATM    8  C   UNK N   1      42.257  46.093  50.679  0.00  0.00    -0.035 A 
HETATM    9  C   UNK N   1      42.298  45.851  52.057  0.00  0.00     0.014 A 
HETATM   10  C   UNK N   1      41.563  44.808  52.618  0.00  0.00     0.039 A 
HETATM   11  C   UNK N   1      40.742  44.001  51.808  0.00  0.00     0.085 A 
HETATM   12  C   UNK N   1      40.678  44.260  50.428  0.00  0.00     0.045 A 
HETATM   13 Br   UNK N   1      39.550  43.203  49.299  0.00  0.00    -0.048 Br
HETATM   14  C   UNK N   1      41.436  45.296  49.865  0.00  0.00     0.033 A 
BRANCH  11  15
HETATM   15  O   UNK N   1      40.003  42.982  52.327  0.00  0.00    -0.355 OA
HETATM   16  C   UNK N   1      39.624  42.873  53.651  0.00  0.00     0.210 C 
ENDBRANCH  11  15
ENDBRANCH   7   8
ENDBRANCH   3   6
ENDBRANCH   1   2
BRANCH   1  17
HETATM   17  C   UNK N   1      39.692  48.138  45.765  0.00  0.00     0.163 C 
HETATM   18  O   UNK N   1      39.761  48.122  44.544  0.00  0.00    -0.648 OA
BRANCH  17  19
HETATM   19  O   UNK N   1      39.182  49.227  46.386  0.00  0.00    -0.775 OA
HETATM   20  H   UNK N   1      38.546  49.810  45.949  0.00  0.00     0.167 HD
ENDBRANCH  17  19
ENDBRANCH   1  17
BRANCH   1  21
HETATM   21  C   UNK N   1      40.860  45.932  45.577  0.00  0.00     0.038 C 
BRANCH  21  22
HETATM   22  C   UNK N   1      40.563  44.450  45.842  0.00  0.00     0.023 C 
BRANCH  22  23
HETATM   23  C   UNK N   1      41.478  43.474  45.097  0.00  0.00     0.138 C 
BRANCH  23  24
HETATM   24  N   UNK N   1      42.706  43.294  45.856  0.00  0.00    -0.227 N 
HETATM   25  C   UNK N   1      43.668  42.300  45.523  0.00  0.00     0.665 C 
HETATM   26  N   UNK N   1      43.482  41.524  44.516  0.00  0.00    -0.235 N 
HETATM   27  N   UNK N   1      44.843  42.175  46.315  0.00  0.00    -0.235 N 
HETATM   28  H   UNK N   1      44.174  40.802  44.264  0.00  0.00     0.174 HD
ATOM     29  HN  UNK N   1      42.635  41.625  43.956  1.00  0.00     0.174 HD
HETATM   30  H   UNK N   1      45.555  41.465  46.091  0.00  0.00     0.174 HD
HETATM   31  H   UNK N   1      44.991  42.794  47.124  0.00  0.00     0.174 HD
HETATM   32  H   UNK N   1      42.897  43.904  46.666  0.00  0.00     0.177 HD
ENDBRANCH  23  24
ENDBRANCH  22  23
ENDBRANCH  21  22
ENDBRANCH   1  21
TORSDOF 10
ENDMDL
MODEL 6
REMARK VINA RESULT:      -5.8      5.484      8.480
REMARK  10 active torsions:
REMARK  status: ('A' for Active; 'I' for Inactive)
REMARK    1  A    between atoms: C_3  and  O_4 
REMARK    2  A    between atoms: C_8  and  C_10 
REMARK    3  A    between atoms: C_11  and  C_12 
REMARK       I    between atoms: C_12  and  N_14 
REMARK    4  A    between atoms: N_14  and  C_15 
REMARK    5  A    between atoms: C_15  and  C_16 
REMARK    6  A    between atoms: C_15  and  C_20 
REMARK    7  A    between atoms: C_16  and  O_18 
REMARK    8  A    between atoms: C_20  and  C_21 
REMARK    9  A    between atoms: C_21  and  C_22 
REMARK   10  A    between atoms: C_22  and  N_23 
REMARK       I    between atoms: N_23  and  C_24 
REMARK       I    between atoms: C_24  and  N_28 
ROOT
HETATM    1  C   UNK N   1      32.628  50.569  43.487  0.00  0.00     0.182 C 
ENDROOT
BRANCH   1   2
HETATM    2  N   UNK N   1      32.950  51.999  43.534  0.00  0.00    -0.343 N 
HETATM    3  C   UNK N   1      32.387  52.880  44.409  0.00  0.00     0.241 C 
HETATM    4  O   UNK N   1      31.513  52.520  45.178  0.00  0.00    -0.269 OA
HETATM    5  H   UNK N   1      33.659  52.374  42.889  0.00  0.00     0.163 HD
BRANCH   3   6
HETATM    6  C   UNK N   1      32.876  54.281  44.415  0.00  0.00     0.075 C 
HETATM    7  C   UNK N   1      32.377  55.290  43.673  0.00  0.00     0.017 C 
BRANCH   7   8
HETATM    8  C   UNK N   1      31.227  55.185  42.744  0.00  0.00    -0.035 A 
HETATM    9  C   UNK N   1      29.944  55.263  43.297  0.00  0.00     0.014 A 
HETATM   10  C   UNK N   1      28.813  55.146  42.491  0.00  0.00     0.039 A 
HETATM   11  C   UNK N   1      28.947  54.979  41.099  0.00  0.00     0.085 A 
HETATM   12  C   UNK N   1      30.235  54.928  40.538  0.00  0.00     0.045 A 
HETATM   13 Br   UNK N   1      30.458  54.730  38.647  0.00  0.00    -0.048 Br
HETATM   14  C   UNK N   1      31.369  55.023  41.357  0.00  0.00     0.033 A 
BRANCH  11  15
HETATM   15  O   UNK N   1      27.864  54.873  40.283  0.00  0.00    -0.355 OA
HETATM   16  C   UNK N   1      26.994  53.799  40.256  0.00  0.00     0.210 C 
ENDBRANCH  11  15
ENDBRANCH   7   8
ENDBRANCH   3   6
ENDBRANCH   1   2
BRANCH   1  17
HETATM   17  C   UNK N   1      31.839  50.249  42.224  0.00  0.00     0.163 C 
HETATM   18  O   UNK N   1      31.598  51.139  41.421  0.00  0.00    -0.648 OA
BRANCH  17  19
HETATM   19  O   UNK N   1      31.420  48.989  41.965  0.00  0.00    -0.775 OA
HETATM   20  H   UNK N   1      31.980  48.221  42.143  0.00  0.00     0.167 HD
ENDBRANCH  17  19
ENDBRANCH   1  17
BRANCH   1  21
HETATM   21  C   UNK N   1      33.904  49.661  43.512  0.00  0.00     0.038 C 
BRANCH  21  22
HETATM   22  C   UNK N   1      35.233  50.421  43.408  0.00  0.00     0.023 C 
BRANCH  22  23
HETATM   23  C   UNK N   1      36.367  49.632  42.748  0.00  0.00     0.138 C 
BRANCH  23  24
HETATM   24  N   UNK N   1      37.577  49.774  43.545  0.00  0.00    -0.227 N 
HETATM   25  C   UNK N   1      38.867  49.889  42.956  0.00  0.00     0.665 C 
HETATM   26  N   UNK N   1      39.003  49.883  41.678  0.00  0.00    -0.235 N 
HETATM   27  N   UNK N   1      40.007  50.017  43.796  0.00  0.00    -0.235 N 
HETATM   28  H   UNK N   1      39.933  49.969  41.240  0.00  0.00     0.174 HD
ATOM     29  HN  UNK N   1      38.177  49.791  41.087  1.00  0.00     0.174 HD
HETATM   30  H   UNK N   1      40.951  50.106  43.393  0.00  0.00     0.174 HD
HETATM   31  H   UNK N   1      39.899  50.020  44.820  0.00  0.00     0.174 HD
HETATM   32  H   UNK N   1      37.508  49.794  44.574  0.00  0.00     0.177 HD
ENDBRANCH  23  24
ENDBRANCH  22  23
ENDBRANCH  21  22
ENDBRANCH   1  21
TORSDOF 10
ENDMDL
MODEL 7
REMARK VINA RESULT:      -5.7      4.346      9.090
REMARK  10 active torsions:
REMARK  status: ('A' for Active; 'I' for Inactive)
REMARK    1  A    between atoms: C_3  and  O_4 
REMARK    2  A    between atoms: C_8  and  C_10 
REMARK    3  A    between atoms: C_11  and  C_12 
REMARK       I    between atoms: C_12  and  N_14 
REMARK    4  A    between atoms: N_14  and  C_15 
REMARK    5  A    between atoms: C_15  and  C_16 
REMARK    6  A    between atoms: C_15  and  C_20 
REMARK    7  A    between atoms: C_16  and  O_18 
REMARK    8  A    between atoms: C_20  and  C_21 
REMARK    9  A    between atoms: C_21  and  C_22 
REMARK   10  A    between atoms: C_22  and  N_23 
REMARK       I    between atoms: N_23  and  C_24 
REMARK       I    between atoms: C_24  and  N_28 
ROOT
HETATM    1  C   UNK N   1      41.380  47.880  46.629  0.00  0.00     0.182 C 
ENDROOT
BRANCH   1   2
HETATM    2  N   UNK N   1      41.598  46.434  46.745  0.00  0.00    -0.343 N 
HETATM    3  C   UNK N   1      40.685  45.563  47.260  0.00  0.00     0.241 C 
HETATM    4  O   UNK N   1      39.633  45.968  47.723  0.00  0.00    -0.269 OA
HETATM    5  H   UNK N   1      42.481  46.032  46.399  0.00  0.00     0.163 HD
BRANCH   3   6
HETATM    6  C   UNK N   1      40.995  44.112  47.227  0.00  0.00     0.075 C 
HETATM    7  C   UNK N   1      41.336  43.358  48.291  0.00  0.00     0.017 C 
BRANCH   7   8
HETATM    8  C   UNK N   1      41.429  43.839  49.689  0.00  0.00    -0.035 A 
HETATM    9  C   UNK N   1      42.304  44.899  49.949  0.00  0.00     0.014 A 
HETATM   10  C   UNK N   1      42.466  45.388  51.243  0.00  0.00     0.039 A 
HETATM   11  C   UNK N   1      41.725  44.840  52.308  0.00  0.00     0.085 A 
HETATM   12  C   UNK N   1      40.825  43.792  52.046  0.00  0.00     0.045 A 
HETATM   13 Br   UNK N   1      39.780  43.040  53.461  0.00  0.00    -0.048 Br
HETATM   14  C   UNK N   1      40.683  43.289  50.745  0.00  0.00     0.033 A 
BRANCH  11  15
HETATM   15  O   UNK N   1      41.852  45.302  53.582  0.00  0.00    -0.355 OA
HETATM   16  C   UNK N   1      41.324  46.490  54.050  0.00  0.00     0.210 C 
ENDBRANCH  11  15
ENDBRANCH   7   8
ENDBRANCH   3   6
ENDBRANCH   1   2
BRANCH   1  17
HETATM   17  C   UNK N   1      42.670  48.574  46.214  0.00  0.00     0.163 C 
HETATM   18  O   UNK N   1      43.672  48.450  46.904  0.00  0.00    -0.648 OA
BRANCH  17  19
HETATM   19  O   UNK N   1      42.732  49.310  45.080  0.00  0.00    -0.775 OA
HETATM   20  H   UNK N   1      41.933  49.589  44.611  0.00  0.00     0.167 HD
ENDBRANCH  17  19
ENDBRANCH   1  17
BRANCH   1  21
HETATM   21  C   UNK N   1      40.270  48.243  45.585  0.00  0.00     0.038 C 
BRANCH  21  22
HETATM   22  C   UNK N   1      39.315  49.361  46.027  0.00  0.00     0.023 C 
BRANCH  22  23
HETATM   23  C   UNK N   1      38.306  49.794  44.961  0.00  0.00     0.138 C 
BRANCH  23  24
HETATM   24  N   UNK N   1      39.018  50.142  43.740  0.00  0.00    -0.227 N 
HETATM   25  C   UNK N   1      38.567  49.736  42.453  0.00  0.00     0.665 C 
HETATM   26  N   UNK N   1      37.490  49.046  42.328  0.00  0.00    -0.235 N 
HETATM   27  N   UNK N   1      39.317  50.106  41.304  0.00  0.00    -0.235 N 
HETATM   28  H   UNK N   1      37.152  48.749  41.400  0.00  0.00     0.174 HD
ATOM     29  HN  UNK N   1      36.961  48.788  43.161  1.00  0.00     0.174 HD
HETATM   30  H   UNK N   1      39.008  49.827  40.361  0.00  0.00     0.174 HD
HETATM   31  H   UNK N   1      40.181  50.657  41.403  0.00  0.00     0.174 HD
HETATM   32  H   UNK N   1      39.881  50.704  43.798  0.00  0.00     0.177 HD
ENDBRANCH  23  24
ENDBRANCH  22  23
ENDBRANCH  21  22
ENDBRANCH   1  21
TORSDOF 10
ENDMDL
MODEL 8
REMARK VINA RESULT:      -5.5      2.760      4.360
REMARK  10 active torsions:
REMARK  status: ('A' for Active; 'I' for Inactive)
REMARK    1  A    between atoms: C_3  and  O_4 
REMARK    2  A    between atoms: C_8  and  C_10 
REMARK    3  A    between atoms: C_11  and  C_12 
REMARK       I    between atoms: C_12  and  N_14 
REMARK    4  A    between atoms: N_14  and  C_15 
REMARK    5  A    between atoms: C_15  and  C_16 
REMARK    6  A    between atoms: C_15  and  C_20 
REMARK    7  A    between atoms: C_16  and  O_18 
REMARK    8  A    between atoms: C_20  and  C_21 
REMARK    9  A    between atoms: C_21  and  C_22 
REMARK   10  A    between atoms: C_22  and  N_23 
REMARK       I    between atoms: N_23  and  C_24 
REMARK       I    between atoms: C_24  and  N_28 
ROOT
HETATM    1  C   UNK N   1      40.859  44.516  47.167  0.00  0.00     0.182 C 
ENDROOT
BRANCH   1   2
HETATM    2  N   UNK N   1      41.466  45.842  47.324  0.00  0.00    -0.343 N 
HETATM    3  C   UNK N   1      41.954  46.586  46.292  0.00  0.00     0.241 C 
HETATM    4  O   UNK N   1      41.965  46.142  45.157  0.00  0.00    -0.269 OA
HETATM    5  H   UNK N   1      41.515  46.261  48.264  0.00  0.00     0.163 HD
BRANCH   3   6
HETATM    6  C   UNK N   1      42.453  47.954  46.579  0.00  0.00     0.075 C 
HETATM    7  C   UNK N   1      41.916  49.099  46.113  0.00  0.00     0.017 C 
BRANCH   7   8
HETATM    8  C   UNK N   1      40.711  49.196  45.256  0.00  0.00    -0.035 A 
HETATM    9  C   UNK N   1      39.642  48.341  45.548  0.00  0.00     0.014 A 
HETATM   10  C   UNK N   1      38.486  48.355  44.770  0.00  0.00     0.039 A 
HETATM   11  C   UNK N   1      38.364  49.255  43.695  0.00  0.00     0.085 A 
HETATM   12  C   UNK N   1      39.425  50.134  43.416  0.00  0.00     0.045 A 
HETATM   13 Br   UNK N   1      39.285  51.392  41.981  0.00  0.00    -0.048 Br
HETATM   14  C   UNK N   1      40.595  50.101  44.188  0.00  0.00     0.033 A 
BRANCH  11  15
HETATM   15  O   UNK N   1      37.244  49.302  42.923  0.00  0.00    -0.355 OA
HETATM   16  C   UNK N   1      36.117  50.048  43.207  0.00  0.00     0.210 C 
ENDBRANCH  11  15
ENDBRANCH   7   8
ENDBRANCH   3   6
ENDBRANCH   1   2
BRANCH   1  17
HETATM   17  C   UNK N   1      41.938  43.442  47.156  0.00  0.00     0.163 C 
HETATM   18  O   UNK N   1      42.097  42.734  48.140  0.00  0.00    -0.648 OA
BRANCH  17  19
HETATM   19  O   UNK N   1      42.710  43.241  46.063  0.00  0.00    -0.775 OA
HETATM   20  H   UNK N   1      43.385  43.880  45.794  0.00  0.00     0.167 HD
ENDBRANCH  17  19
ENDBRANCH   1  17
BRANCH   1  21
HETATM   21  C   UNK N   1      39.841  44.178  48.308  0.00  0.00     0.038 C 
BRANCH  21  22
HETATM   22  C   UNK N   1      39.874  45.141  49.503  0.00  0.00     0.023 C 
BRANCH  22  23
HETATM   23  C   UNK N   1      40.703  44.651  50.692  0.00  0.00     0.138 C 
BRANCH  23  24
HETATM   24  N   UNK N   1      39.889  43.766  51.512  0.00  0.00    -0.227 N 
HETATM   25  C   UNK N   1      40.222  43.454  52.860  0.00  0.00     0.665 C 
HETATM   26  N   UNK N   1      41.267  43.965  53.407  0.00  0.00    -0.235 N 
HETATM   27  N   UNK N   1      39.385  42.575  53.599  0.00  0.00    -0.235 N 
HETATM   28  H   UNK N   1      41.517  43.748  54.384  0.00  0.00     0.174 HD
ATOM     29  HN  UNK N   1      41.860  44.594  52.865  1.00  0.00     0.174 HD
HETATM   30  H   UNK N   1      39.604  42.338  54.578  0.00  0.00     0.174 HD
HETATM   31  H   UNK N   1      38.549  42.165  53.161  0.00  0.00     0.174 HD
HETATM   32  H   UNK N   1      39.036  43.345  51.112  0.00  0.00     0.177 HD
ENDBRANCH  23  24
ENDBRANCH  22  23
ENDBRANCH  21  22
ENDBRANCH   1  21
TORSDOF 10
ENDMDL
MODEL 9
REMARK VINA RESULT:      -5.3     14.356     17.577
REMARK  10 active torsions:
REMARK  status: ('A' for Active; 'I' for Inactive)
REMARK    1  A    between atoms: C_3  and  O_4 
REMARK    2  A    between atoms: C_8  and  C_10 
REMARK    3  A    between atoms: C_11  and  C_12 
REMARK       I    between atoms: C_12  and  N_14 
REMARK    4  A    between atoms: N_14  and  C_15 
REMARK    5  A    between atoms: C_15  and  C_16 
REMARK    6  A    between atoms: C_15  and  C_20 
REMARK    7  A    between atoms: C_16  and  O_18 
REMARK    8  A    between atoms: C_20  and  C_21 
REMARK    9  A    between atoms: C_21  and  C_22 
REMARK   10  A    between atoms: C_22  and  N_23 
REMARK       I    between atoms: N_23  and  C_24 
REMARK       I    between atoms: C_24  and  N_28 
ROOT
HETATM    1  C   UNK N   1      31.984  44.306  57.923  0.00  0.00     0.182 C 
ENDROOT
BRANCH   1   2
HETATM    2  N   UNK N   1      31.550  43.749  59.209  0.00  0.00    -0.343 N 
HETATM    3  C   UNK N   1      32.382  43.127  60.091  0.00  0.00     0.241 C 
HETATM    4  O   UNK N   1      33.554  42.942  59.816  0.00  0.00    -0.269 OA
HETATM    5  H   UNK N   1      30.563  43.844  59.487  0.00  0.00     0.163 HD
BRANCH   3   6
HETATM    6  C   UNK N   1      31.830  42.696  61.400  0.00  0.00     0.075 C 
HETATM    7  C   UNK N   1      32.164  43.211  62.600  0.00  0.00     0.017 C 
BRANCH   7   8
HETATM    8  C   UNK N   1      33.118  44.323  62.822  0.00  0.00    -0.035 A 
HETATM    9  C   UNK N   1      32.585  45.574  63.150  0.00  0.00     0.014 A 
HETATM   10  C   UNK N   1      33.418  46.673  63.347  0.00  0.00     0.039 A 
HETATM   11  C   UNK N   1      34.815  46.533  63.249  0.00  0.00     0.085 A 
HETATM   12  C   UNK N   1      35.355  45.271  62.947  0.00  0.00     0.045 A 
HETATM   13 Br   UNK N   1      37.251  45.033  62.834  0.00  0.00    -0.048 Br
HETATM   14  C   UNK N   1      34.512  44.173  62.728  0.00  0.00     0.033 A 
BRANCH  11  15
HETATM   15  O   UNK N   1      35.657  47.584  63.447  0.00  0.00    -0.355 OA
HETATM   16  C   UNK N   1      35.909  48.581  62.524  0.00  0.00     0.210 C 
ENDBRANCH  11  15
ENDBRANCH   7   8
ENDBRANCH   3   6
ENDBRANCH   1   2
BRANCH   1  17
HETATM   17  C   UNK N   1      31.668  43.334  56.795  0.00  0.00     0.163 C 
HETATM   18  O   UNK N   1      32.501  43.127  55.924  0.00  0.00    -0.648 OA
BRANCH  17  19
HETATM   19  O   UNK N   1      30.487  42.676  56.753  0.00  0.00    -0.775 OA
HETATM   20  H   UNK N   1      30.313  41.908  57.315  0.00  0.00     0.167 HD
ENDBRANCH  17  19
ENDBRANCH   1  17
BRANCH   1  21
HETATM   21  C   UNK N   1      31.301  45.677  57.597  0.00  0.00     0.038 C 
BRANCH  21  22
HETATM   22  C   UNK N   1      30.387  46.218  58.706  0.00  0.00     0.023 C 
BRANCH  22  23
HETATM   23  C   UNK N   1      29.332  47.218  58.229  0.00  0.00     0.138 C 
BRANCH  23  24
HETATM   24  N   UNK N   1      29.776  47.827  56.984  0.00  0.00    -0.227 N 
HETATM   25  C   UNK N   1      30.262  49.163  56.920  0.00  0.00     0.665 C 
HETATM   26  N   UNK N   1      30.335  49.881  57.983  0.00  0.00    -0.235 N 
HETATM   27  N   UNK N   1      30.672  49.695  55.667  0.00  0.00    -0.235 N 
HETATM   28  H   UNK N   1      30.688  50.850  57.948  0.00  0.00     0.174 HD
ATOM     29  HN  UNK N   1      30.038  49.487  58.875  1.00  0.00     0.174 HD
HETATM   30  H   UNK N   1      31.031  50.659  55.596  0.00  0.00     0.174 HD
HETATM   31  H   UNK N   1      30.611  49.121  54.815  0.00  0.00     0.174 HD
HETATM   32  H   UNK N   1      29.743  47.279  56.110  0.00  0.00     0.177 HD
ENDBRANCH  23  24
ENDBRANCH  22  23
ENDBRANCH  21  22
ENDBRANCH   1  21
TORSDOF 10
ENDMDL
