MODEL 1
REMARK VINA RESULT:      -7.8      0.000      0.000
REMARK  9 active torsions:
REMARK  status: ('A' for Active; 'I' for Inactive)
REMARK    1  A    between atoms: C_2  and  C_28 
REMARK    2  A    between atoms: C_3  and  O_4 
REMARK    3  A    between atoms: O_4  and  C_5 
REMARK    4  A    between atoms: C_8  and  O_9 
REMARK    5  A    between atoms: C_11  and  O_12 
REMARK    6  A    between atoms: C_14  and  O_15 
REMARK    7  A    between atoms: C_21  and  O_22 
REMARK    8  A    between atoms: C_25  and  O_26 
REMARK    9  A    between atoms: C_31  and  O_32 
ROOT
HETATM    1  O   UNK N   1      40.909  47.024  45.141  0.00  0.00    -0.306 OA
HETATM    2  C   UNK N   1      40.826  46.024  46.017  0.00  0.00     0.119 A 
HETATM    3  C   UNK N   1      40.130  46.206  47.231  0.00  0.00     0.108 A 
HETATM    4  C   UNK N   1      39.507  47.447  47.463  0.00  0.00     0.057 A 
HETATM    5  C   UNK N   1      39.585  48.455  46.496  0.00  0.00     0.034 A 
HETATM    6  C   UNK N   1      40.318  48.196  45.321  0.00  0.00     0.092 A 
HETATM    7  C   UNK N   1      40.418  49.176  44.328  0.00  0.00     0.074 A 
HETATM    8  C   UNK N   1      39.792  50.417  44.496  0.00  0.00     0.071 A 
HETATM    9  C   UNK N   1      39.068  50.681  45.664  0.00  0.00     0.074 A 
HETATM   10  C   UNK N   1      38.961  49.706  46.670  0.00  0.00     0.081 A 
ENDROOT
BRANCH   3  11
HETATM   11  O   UNK N   1      40.127  45.213  48.168  0.00  0.00    -0.315 OA
BRANCH  11  12
HETATM   12  C   UNK N   1      40.446  45.400  49.504  0.00  0.00     0.297 C 
HETATM   13  O   UNK N   1      41.847  45.635  49.603  0.00  0.00    -0.356 OA
HETATM   14  C   UNK N   1      42.212  45.950  50.934  0.00  0.00     0.205 C 
HETATM   15  C   UNK N   1      41.962  44.756  51.866  0.00  0.00     0.173 C 
HETATM   16  C   UNK N   1      40.468  44.379  51.784  0.00  0.00     0.182 C 
HETATM   17  C   UNK N   1      40.066  44.142  50.314  0.00  0.00     0.205 C 
BRANCH  15  18
HETATM   18  O   UNK N   1      42.316  45.109  53.178  0.00  0.00    -0.391 OA
HETATM   19  H   UNK N   1      41.771  44.543  53.785  0.00  0.00     0.210 HD
ENDBRANCH  15  18
BRANCH  16  20
HETATM   20  O   UNK N   1      40.163  43.266  52.588  0.00  0.00    -0.390 OA
HETATM   21  H   UNK N   1      40.998  42.978  53.039  0.00  0.00     0.210 HD
ENDBRANCH  16  20
BRANCH  17  22
HETATM   22  O   UNK N   1      40.744  43.019  49.808  0.00  0.00    -0.388 OA
HETATM   23  H   UNK N   1      41.715  43.227  49.844  0.00  0.00     0.210 HD
ENDBRANCH  17  22
ENDBRANCH  11  12
ENDBRANCH   3  11
BRANCH   2  24
HETATM   24  C   UNK N   1      41.507  44.759  45.676  0.00  0.00     0.001 A 
HETATM   25  C   UNK N   1      41.673  43.781  46.668  0.00  0.00     0.017 A 
HETATM   26  C   UNK N   1      42.336  42.587  46.379  0.00  0.00     0.037 A 
HETATM   27  C   UNK N   1      42.876  42.373  45.103  0.00  0.00     0.065 A 
HETATM   28  C   UNK N   1      42.729  43.352  44.114  0.00  0.00     0.037 A 
HETATM   29  C   UNK N   1      42.034  44.536  44.392  0.00  0.00     0.017 A 
BRANCH  27  30
HETATM   30  O   UNK N   1      43.539  41.234  44.822  0.00  0.00    -0.361 OA
HETATM   31  H   UNK N   1      44.503  41.177  44.890  0.00  0.00     0.217 HD
ENDBRANCH  27  30
ENDBRANCH   2  24
BRANCH  10  32
HETATM   32  O   UNK N   1      38.258  49.969  47.794  0.00  0.00    -0.360 OA
HETATM   33  H   UNK N   1      37.328  50.235  47.764  0.00  0.00     0.217 HD
ENDBRANCH  10  32
BRANCH   8  34
HETATM   34  O   UNK N   1      39.879  51.363  43.538  0.00  0.00    -0.361 OA
HETATM   35  H   UNK N   1      39.408  51.279  42.697  0.00  0.00     0.217 HD
ENDBRANCH   8  34
TORSDOF 9
ENDMDL
MODEL 2
REMARK VINA RESULT:      -7.1      1.285      5.726
REMARK  9 active torsions:
REMARK  status: ('A' for Active; 'I' for Inactive)
REMARK    1  A    between atoms: C_2  and  C_28 
REMARK    2  A    between atoms: C_3  and  O_4 
REMARK    3  A    between atoms: O_4  and  C_5 
REMARK    4  A    between atoms: C_8  and  O_9 
REMARK    5  A    between atoms: C_11  and  O_12 
REMARK    6  A    between atoms: C_14  and  O_15 
REMARK    7  A    between atoms: C_21  and  O_22 
REMARK    8  A    between atoms: C_25  and  O_26 
REMARK    9  A    between atoms: C_31  and  O_32 
ROOT
HETATM    1  O   UNK N   1      42.137  44.701  45.314  0.00  0.00    -0.306 OA
HETATM    2  C   UNK N   1      41.326  45.175  46.259  0.00  0.00     0.119 A 
HETATM    3  C   UNK N   1      40.968  44.360  47.354  0.00  0.00     0.108 A 
HETATM    4  C   UNK N   1      41.518  43.066  47.431  0.00  0.00     0.057 A 
HETATM    5  C   UNK N   1      42.399  42.626  46.436  0.00  0.00     0.034 A 
HETATM    6  C   UNK N   1      42.686  43.496  45.367  0.00  0.00     0.092 A 
HETATM    7  C   UNK N   1      43.563  43.096  44.354  0.00  0.00     0.074 A 
HETATM    8  C   UNK N   1      44.160  41.830  44.398  0.00  0.00     0.071 A 
HETATM    9  C   UNK N   1      43.874  40.960  45.456  0.00  0.00     0.074 A 
HETATM   10  C   UNK N   1      42.993  41.349  46.479  0.00  0.00     0.081 A 
ENDROOT
BRANCH   3  11
HETATM   11  O   UNK N   1      40.063  44.812  48.270  0.00  0.00    -0.315 OA
BRANCH  11  12
HETATM   12  C   UNK N   1      40.386  45.195  49.563  0.00  0.00     0.297 C 
HETATM   13  O   UNK N   1      41.789  45.431  49.624  0.00  0.00    -0.356 OA
HETATM   14  C   UNK N   1      42.160  45.938  50.893  0.00  0.00     0.205 C 
HETATM   15  C   UNK N   1      41.902  44.900  51.994  0.00  0.00     0.173 C 
HETATM   16  C   UNK N   1      40.405  44.527  51.970  0.00  0.00     0.182 C 
HETATM   17  C   UNK N   1      39.998  44.075  50.553  0.00  0.00     0.205 C 
BRANCH  15  18
HETATM   18  O   UNK N   1      42.262  45.442  53.238  0.00  0.00    -0.391 OA
HETATM   19  H   UNK N   1      42.102  44.735  53.916  0.00  0.00     0.210 HD
ENDBRANCH  15  18
BRANCH  16  20
HETATM   20  O   UNK N   1      40.093  43.549  52.932  0.00  0.00    -0.390 OA
HETATM   21  H   UNK N   1      40.514  43.819  53.788  0.00  0.00     0.210 HD
ENDBRANCH  16  20
BRANCH  17  22
HETATM   22  O   UNK N   1      40.666  42.883  50.220  0.00  0.00    -0.388 OA
HETATM   23  H   UNK N   1      41.439  42.803  50.840  0.00  0.00     0.210 HD
ENDBRANCH  17  22
ENDBRANCH  11  12
ENDBRANCH   3  11
BRANCH   2  24
HETATM   24  C   UNK N   1      40.809  46.547  46.090  0.00  0.00     0.001 A 
HETATM   25  C   UNK N   1      39.438  46.740  45.866  0.00  0.00     0.017 A 
HETATM   26  C   UNK N   1      38.927  48.025  45.677  0.00  0.00     0.037 A 
HETATM   27  C   UNK N   1      39.788  49.132  45.673  0.00  0.00     0.065 A 
HETATM   28  C   UNK N   1      41.159  48.944  45.879  0.00  0.00     0.037 A 
HETATM   29  C   UNK N   1      41.669  47.659  46.103  0.00  0.00     0.017 A 
BRANCH  27  30
HETATM   30  O   UNK N   1      39.307  50.374  45.467  0.00  0.00    -0.361 OA
HETATM   31  H   UNK N   1      38.366  50.578  45.569  0.00  0.00     0.217 HD
ENDBRANCH  27  30
ENDBRANCH   2  24
BRANCH  10  32
HETATM   32  O   UNK N   1      42.724  40.503  47.497  0.00  0.00    -0.360 OA
HETATM   33  H   UNK N   1      43.420  39.991  47.932  0.00  0.00     0.217 HD
ENDBRANCH  10  32
BRANCH   8  34
HETATM   34  O   UNK N   1      45.013  41.442  43.428  0.00  0.00    -0.361 OA
HETATM   35  H   UNK N   1      45.654  42.055  43.039  0.00  0.00     0.217 HD
ENDBRANCH   8  34
TORSDOF 9
ENDMDL
MODEL 3
REMARK VINA RESULT:      -6.8     11.209     16.091
REMARK  9 active torsions:
REMARK  status: ('A' for Active; 'I' for Inactive)
REMARK    1  A    between atoms: C_2  and  C_28 
REMARK    2  A    between atoms: C_3  and  O_4 
REMARK    3  A    between atoms: O_4  and  C_5 
REMARK    4  A    between atoms: C_8  and  O_9 
REMARK    5  A    between atoms: C_11  and  O_12 
REMARK    6  A    between atoms: C_14  and  O_15 
REMARK    7  A    between atoms: C_21  and  O_22 
REMARK    8  A    between atoms: C_25  and  O_26 
REMARK    9  A    between atoms: C_31  and  O_32 
ROOT
HETATM    1  O   UNK N   1      31.583  53.620  42.664  0.00  0.00    -0.306 OA
HETATM    2  C   UNK N   1      30.701  53.715  41.669  0.00  0.00     0.119 A 
HETATM    3  C   UNK N   1      30.359  52.571  40.918  0.00  0.00     0.108 A 
HETATM    4  C   UNK N   1      30.942  51.340  41.274  0.00  0.00     0.057 A 
HETATM    5  C   UNK N   1      31.831  51.279  42.354  0.00  0.00     0.034 A 
HETATM    6  C   UNK N   1      32.134  52.474  43.036  0.00  0.00     0.092 A 
HETATM    7  C   UNK N   1      33.015  52.456  44.122  0.00  0.00     0.074 A 
HETATM    8  C   UNK N   1      33.599  51.253  44.536  0.00  0.00     0.071 A 
HETATM    9  C   UNK N   1      33.306  50.064  43.857  0.00  0.00     0.074 A 
HETATM   10  C   UNK N   1      32.424  50.069  42.764  0.00  0.00     0.081 A 
ENDROOT
BRANCH   3  11
HETATM   11  O   UNK N   1      29.531  52.689  39.839  0.00  0.00    -0.315 OA
BRANCH  11  12
HETATM   12  C   UNK N   1      28.437  51.872  39.603  0.00  0.00     0.297 C 
HETATM   13  O   UNK N   1      27.717  52.394  38.492  0.00  0.00    -0.356 OA
HETATM   14  C   UNK N   1      26.652  51.534  38.130  0.00  0.00     0.205 C 
HETATM   15  C   UNK N   1      25.609  51.453  39.253  0.00  0.00     0.173 C 
HETATM   16  C   UNK N   1      26.308  50.950  40.533  0.00  0.00     0.182 C 
HETATM   17  C   UNK N   1      27.527  51.840  40.851  0.00  0.00     0.205 C 
BRANCH  15  18
HETATM   18  O   UNK N   1      24.580  50.578  38.870  0.00  0.00    -0.391 OA
HETATM   19  H   UNK N   1      24.970  49.948  38.210  0.00  0.00     0.210 HD
ENDBRANCH  15  18
BRANCH  16  20
HETATM   20  O   UNK N   1      25.423  50.881  41.623  0.00  0.00    -0.390 OA
HETATM   21  H   UNK N   1      24.538  51.211  41.318  0.00  0.00     0.210 HD
ENDBRANCH  16  20
BRANCH  17  22
HETATM   22  O   UNK N   1      27.098  53.141  41.169  0.00  0.00    -0.388 OA
HETATM   23  H   UNK N   1      27.766  53.768  40.783  0.00  0.00     0.210 HD
ENDBRANCH  17  22
ENDBRANCH  11  12
ENDBRANCH   3  11
BRANCH   2  24
HETATM   24  C   UNK N   1      30.141  55.050  41.380  0.00  0.00     0.001 A 
HETATM   25  C   UNK N   1      30.625  55.773  40.279  0.00  0.00     0.017 A 
HETATM   26  C   UNK N   1      30.131  57.047  39.998  0.00  0.00     0.037 A 
HETATM   27  C   UNK N   1      29.172  57.632  40.838  0.00  0.00     0.065 A 
HETATM   28  C   UNK N   1      28.698  56.923  41.947  0.00  0.00     0.037 A 
HETATM   29  C   UNK N   1      29.166  55.630  42.211  0.00  0.00     0.017 A 
BRANCH  27  30
HETATM   30  O   UNK N   1      28.707  58.872  40.588  0.00  0.00    -0.361 OA
HETATM   31  H   UNK N   1      27.779  59.031  40.364  0.00  0.00     0.217 HD
ENDBRANCH  27  30
ENDBRANCH   2  24
BRANCH  10  32
HETATM   32  O   UNK N   1      32.145  48.917  42.116  0.00  0.00    -0.360 OA
HETATM   33  H   UNK N   1      32.307  48.812  41.168  0.00  0.00     0.217 HD
ENDBRANCH  10  32
BRANCH   8  34
HETATM   34  O   UNK N   1      34.444  51.228  45.588  0.00  0.00    -0.361 OA
HETATM   35  H   UNK N   1      34.212  50.782  46.415  0.00  0.00     0.217 HD
ENDBRANCH   8  34
TORSDOF 9
ENDMDL
MODEL 4
REMARK VINA RESULT:      -6.7     11.755     16.565
REMARK  9 active torsions:
REMARK  status: ('A' for Active; 'I' for Inactive)
REMARK    1  A    between atoms: C_2  and  C_28 
REMARK    2  A    between atoms: C_3  and  O_4 
REMARK    3  A    between atoms: O_4  and  C_5 
REMARK    4  A    between atoms: C_8  and  O_9 
REMARK    5  A    between atoms: C_11  and  O_12 
REMARK    6  A    between atoms: C_14  and  O_15 
REMARK    7  A    between atoms: C_21  and  O_22 
REMARK    8  A    between atoms: C_25  and  O_26 
REMARK    9  A    between atoms: C_31  and  O_32 
ROOT
HETATM    1  O   UNK N   1      31.027  52.784  41.964  0.00  0.00    -0.306 OA
HETATM    2  C   UNK N   1      30.330  53.677  41.262  0.00  0.00     0.119 A 
HETATM    3  C   UNK N   1      30.391  55.045  41.604  0.00  0.00     0.108 A 
HETATM    4  C   UNK N   1      31.229  55.431  42.667  0.00  0.00     0.057 A 
HETATM    5  C   UNK N   1      31.976  54.463  43.349  0.00  0.00     0.034 A 
HETATM    6  C   UNK N   1      31.839  53.117  42.957  0.00  0.00     0.092 A 
HETATM    7  C   UNK N   1      32.570  52.120  43.610  0.00  0.00     0.074 A 
HETATM    8  C   UNK N   1      33.440  52.454  44.656  0.00  0.00     0.071 A 
HETATM    9  C   UNK N   1      33.575  53.789  45.052  0.00  0.00     0.074 A 
HETATM   10  C   UNK N   1      32.845  54.800  44.405  0.00  0.00     0.081 A 
ENDROOT
BRANCH   3  11
HETATM   11  O   UNK N   1      29.603  55.944  40.946  0.00  0.00    -0.315 OA
BRANCH  11  12
HETATM   12  C   UNK N   1      28.411  56.448  41.444  0.00  0.00     0.297 C 
HETATM   13  O   UNK N   1      27.765  55.420  42.188  0.00  0.00    -0.356 OA
HETATM   14  C   UNK N   1      26.598  55.912  42.819  0.00  0.00     0.205 C 
HETATM   15  C   UNK N   1      25.553  56.340  41.779  0.00  0.00     0.173 C 
HETATM   16  C   UNK N   1      26.181  57.420  40.874  0.00  0.00     0.182 C 
HETATM   17  C   UNK N   1      27.506  56.901  40.278  0.00  0.00     0.205 C 
BRANCH  15  18
HETATM   18  O   UNK N   1      24.418  56.840  42.438  0.00  0.00    -0.391 OA
HETATM   19  H   UNK N   1      24.022  57.531  41.845  0.00  0.00     0.210 HD
ENDBRANCH  15  18
BRANCH  16  20
HETATM   20  O   UNK N   1      25.294  57.842  39.867  0.00  0.00    -0.390 OA
HETATM   21  H   UNK N   1      24.493  57.257  39.902  0.00  0.00     0.210 HD
ENDBRANCH  16  20
BRANCH  17  22
HETATM   22  O   UNK N   1      27.251  55.819  39.416  0.00  0.00    -0.388 OA
HETATM   23  H   UNK N   1      26.367  55.988  38.995  0.00  0.00     0.210 HD
ENDBRANCH  17  22
ENDBRANCH  11  12
ENDBRANCH   3  11
BRANCH   2  24
HETATM   24  C   UNK N   1      29.488  53.171  40.161  0.00  0.00     0.001 A 
HETATM   25  C   UNK N   1      29.848  53.458  38.836  0.00  0.00     0.017 A 
HETATM   26  C   UNK N   1      29.056  53.014  37.776  0.00  0.00     0.037 A 
HETATM   27  C   UNK N   1      27.871  52.309  38.030  0.00  0.00     0.065 A 
HETATM   28  C   UNK N   1      27.496  52.036  39.350  0.00  0.00     0.037 A 
HETATM   29  C   UNK N   1      28.308  52.450  40.414  0.00  0.00     0.017 A 
BRANCH  27  30
HETATM   30  O   UNK N   1      27.087  51.898  37.014  0.00  0.00    -0.361 OA
HETATM   31  H   UNK N   1      27.455  51.673  36.147  0.00  0.00     0.217 HD
ENDBRANCH  27  30
ENDBRANCH   2  24
BRANCH  10  32
HETATM   32  O   UNK N   1      32.983  56.087  44.793  0.00  0.00    -0.360 OA
HETATM   33  H   UNK N   1      32.570  56.423  45.601  0.00  0.00     0.217 HD
ENDBRANCH  10  32
BRANCH   8  34
HETATM   34  O   UNK N   1      34.153  51.497  45.285  0.00  0.00    -0.361 OA
HETATM   35  H   UNK N   1      34.793  50.946  44.811  0.00  0.00     0.217 HD
ENDBRANCH   8  34
TORSDOF 9
ENDMDL
MODEL 5
REMARK VINA RESULT:      -6.7     11.650     16.920
REMARK  9 active torsions:
REMARK  status: ('A' for Active; 'I' for Inactive)
REMARK    1  A    between atoms: C_2  and  C_28 
REMARK    2  A    between atoms: C_3  and  O_4 
REMARK    3  A    between atoms: O_4  and  C_5 
REMARK    4  A    between atoms: C_8  and  O_9 
REMARK    5  A    between atoms: C_11  and  O_12 
REMARK    6  A    between atoms: C_14  and  O_15 
REMARK    7  A    between atoms: C_21  and  O_22 
REMARK    8  A    between atoms: C_25  and  O_26 
REMARK    9  A    between atoms: C_31  and  O_32 
ROOT
HETATM    1  O   UNK N   1      30.691  52.949  42.214  0.00  0.00    -0.306 OA
HETATM    2  C   UNK N   1      29.944  53.843  41.567  0.00  0.00     0.119 A 
HETATM    3  C   UNK N   1      30.101  55.220  41.834  0.00  0.00     0.108 A 
HETATM    4  C   UNK N   1      31.084  55.611  42.763  0.00  0.00     0.057 A 
HETATM    5  C   UNK N   1      31.876  54.640  43.388  0.00  0.00     0.034 A 
HETATM    6  C   UNK N   1      31.637  53.286  43.079  0.00  0.00     0.092 A 
HETATM    7  C   UNK N   1      32.408  52.285  43.678  0.00  0.00     0.074 A 
HETATM    8  C   UNK N   1      33.419  52.622  44.587  0.00  0.00     0.071 A 
HETATM    9  C   UNK N   1      33.655  53.966  44.901  0.00  0.00     0.074 A 
HETATM   10  C   UNK N   1      32.887  54.981  44.307  0.00  0.00     0.081 A 
ENDROOT
BRANCH   3  11
HETATM   11  O   UNK N   1      29.270  56.125  41.242  0.00  0.00    -0.315 OA
BRANCH  11  12
HETATM   12  C   UNK N   1      29.628  56.931  40.173  0.00  0.00     0.297 C 
HETATM   13  O   UNK N   1      29.073  58.226  40.380  0.00  0.00    -0.356 OA
HETATM   14  C   UNK N   1      29.505  59.126  39.376  0.00  0.00     0.205 C 
HETATM   15  C   UNK N   1      28.976  58.703  37.998  0.00  0.00     0.173 C 
HETATM   16  C   UNK N   1      29.476  57.274  37.703  0.00  0.00     0.182 C 
HETATM   17  C   UNK N   1      29.085  56.331  38.859  0.00  0.00     0.205 C 
BRANCH  15  18
HETATM   18  O   UNK N   1      29.438  59.605  37.027  0.00  0.00    -0.391 OA
HETATM   19  H   UNK N   1      29.300  60.517  37.392  0.00  0.00     0.210 HD
ENDBRANCH  15  18
BRANCH  16  20
HETATM   20  O   UNK N   1      29.003  56.798  36.467  0.00  0.00    -0.390 OA
HETATM   21  H   UNK N   1      29.623  57.116  35.760  0.00  0.00     0.210 HD
ENDBRANCH  16  20
BRANCH  17  22
HETATM   22  O   UNK N   1      27.685  56.211  38.925  0.00  0.00    -0.388 OA
HETATM   23  H   UNK N   1      27.457  56.013  39.871  0.00  0.00     0.210 HD
ENDBRANCH  17  22
ENDBRANCH  11  12
ENDBRANCH   3  11
BRANCH   2  24
HETATM   24  C   UNK N   1      28.947  53.331  40.607  0.00  0.00     0.001 A 
HETATM   25  C   UNK N   1      29.367  52.939  39.327  0.00  0.00     0.017 A 
HETATM   26  C   UNK N   1      28.441  52.475  38.391  0.00  0.00     0.037 A 
HETATM   27  C   UNK N   1      27.077  52.432  38.711  0.00  0.00     0.065 A 
HETATM   28  C   UNK N   1      26.650  52.839  39.980  0.00  0.00     0.037 A 
HETATM   29  C   UNK N   1      27.580  53.271  40.933  0.00  0.00     0.017 A 
BRANCH  27  30
HETATM   30  O   UNK N   1      26.173  52.009  37.805  0.00  0.00    -0.361 OA
HETATM   31  H   UNK N   1      26.358  52.031  36.855  0.00  0.00     0.217 HD
ENDBRANCH  27  30
ENDBRANCH   2  24
BRANCH  10  32
HETATM   32  O   UNK N   1      33.124  56.275  44.615  0.00  0.00    -0.360 OA
HETATM   33  H   UNK N   1      33.608  56.861  44.016  0.00  0.00     0.217 HD
ENDBRANCH  10  32
BRANCH   8  34
HETATM   34  O   UNK N   1      34.170  51.662  45.163  0.00  0.00    -0.361 OA
HETATM   35  H   UNK N   1      35.113  51.567  44.965  0.00  0.00     0.217 HD
ENDBRANCH   8  34
TORSDOF 9
ENDMDL
MODEL 6
REMARK VINA RESULT:      -5.9     14.284     16.389
REMARK  9 active torsions:
REMARK  status: ('A' for Active; 'I' for Inactive)
REMARK    1  A    between atoms: C_2  and  C_28 
REMARK    2  A    between atoms: C_3  and  O_4 
REMARK    3  A    between atoms: O_4  and  C_5 
REMARK    4  A    between atoms: C_8  and  O_9 
REMARK    5  A    between atoms: C_11  and  O_12 
REMARK    6  A    between atoms: C_14  and  O_15 
REMARK    7  A    between atoms: C_21  and  O_22 
REMARK    8  A    between atoms: C_25  and  O_26 
REMARK    9  A    between atoms: C_31  and  O_32 
ROOT
HETATM    1  O   UNK N   1      29.977  40.920  57.520  0.00  0.00    -0.306 OA
HETATM    2  C   UNK N   1      29.123  40.699  56.522  0.00  0.00     0.119 A 
HETATM    3  C   UNK N   1      28.386  41.771  55.975  0.00  0.00     0.108 A 
HETATM    4  C   UNK N   1      28.608  43.064  56.486  0.00  0.00     0.057 A 
HETATM    5  C   UNK N   1      29.547  43.255  57.507  0.00  0.00     0.034 A 
HETATM    6  C   UNK N   1      30.223  42.127  58.010  0.00  0.00     0.092 A 
HETATM    7  C   UNK N   1      31.171  42.274  59.028  0.00  0.00     0.074 A 
HETATM    8  C   UNK N   1      31.452  43.543  59.551  0.00  0.00     0.071 A 
HETATM    9  C   UNK N   1      30.777  44.666  59.058  0.00  0.00     0.074 A 
HETATM   10  C   UNK N   1      29.822  44.531  58.037  0.00  0.00     0.081 A 
ENDROOT
BRANCH   3  11
HETATM   11  O   UNK N   1      27.442  41.528  55.019  0.00  0.00    -0.315 OA
BRANCH  11  12
HETATM   12  C   UNK N   1      27.437  42.113  53.762  0.00  0.00     0.297 C 
HETATM   13  O   UNK N   1      26.085  42.342  53.379  0.00  0.00    -0.356 OA
HETATM   14  C   UNK N   1      26.020  43.046  52.152  0.00  0.00     0.205 C 
HETATM   15  C   UNK N   1      26.601  42.203  51.007  0.00  0.00     0.173 C 
HETATM   16  C   UNK N   1      28.060  41.845  51.357  0.00  0.00     0.182 C 
HETATM   17  C   UNK N   1      28.119  41.173  52.744  0.00  0.00     0.205 C 
BRANCH  15  18
HETATM   18  O   UNK N   1      26.539  42.937  49.812  0.00  0.00    -0.391 OA
HETATM   19  H   UNK N   1      25.632  42.793  49.434  0.00  0.00     0.210 HD
ENDBRANCH  15  18
BRANCH  16  20
HETATM   20  O   UNK N   1      28.654  41.040  50.369  0.00  0.00    -0.390 OA
HETATM   21  H   UNK N   1      28.778  40.132  50.750  0.00  0.00     0.210 HD
ENDBRANCH  16  20
BRANCH  17  22
HETATM   22  O   UNK N   1      27.450  39.937  52.705  0.00  0.00    -0.388 OA
HETATM   23  H   UNK N   1      27.823  39.383  53.441  0.00  0.00     0.210 HD
ENDBRANCH  17  22
ENDBRANCH  11  12
ENDBRANCH   3  11
BRANCH   2  24
HETATM   24  C   UNK N   1      28.968  39.309  56.052  0.00  0.00     0.001 A 
HETATM   25  C   UNK N   1      29.878  38.796  55.116  0.00  0.00     0.017 A 
HETATM   26  C   UNK N   1      29.740  37.493  54.636  0.00  0.00     0.037 A 
HETATM   27  C   UNK N   1      28.665  36.698  55.057  0.00  0.00     0.065 A 
HETATM   28  C   UNK N   1      27.743  37.210  55.977  0.00  0.00     0.037 A 
HETATM   29  C   UNK N   1      27.900  38.505  56.487  0.00  0.00     0.017 A 
BRANCH  27  30
HETATM   30  O   UNK N   1      28.509  35.447  54.580  0.00  0.00    -0.361 OA
HETATM   31  H   UNK N   1      27.758  34.894  54.838  0.00  0.00     0.217 HD
ENDBRANCH  27  30
ENDBRANCH   2  24
BRANCH  10  32
HETATM   32  O   UNK N   1      29.178  45.621  57.566  0.00  0.00    -0.360 OA
HETATM   33  H   UNK N   1      28.862  46.321  58.154  0.00  0.00     0.217 HD
ENDBRANCH  10  32
BRANCH   8  34
HETATM   34  O   UNK N   1      32.370  43.693  60.527  0.00  0.00    -0.361 OA
HETATM   35  H   UNK N   1      33.250  44.052  60.346  0.00  0.00     0.217 HD
ENDBRANCH   8  34
TORSDOF 9
ENDMDL
MODEL 7
REMARK VINA RESULT:      -5.9     13.555     17.156
REMARK  9 active torsions:
REMARK  status: ('A' for Active; 'I' for Inactive)
REMARK    1  A    between atoms: C_2  and  C_28 
REMARK    2  A    between atoms: C_3  and  O_4 
REMARK    3  A    between atoms: O_4  and  C_5 
REMARK    4  A    between atoms: C_8  and  O_9 
REMARK    5  A    between atoms: C_11  and  O_12 
REMARK    6  A    between atoms: C_14  and  O_15 
REMARK    7  A    between atoms: C_21  and  O_22 
REMARK    8  A    between atoms: C_25  and  O_26 
REMARK    9  A    between atoms: C_31  and  O_32 
ROOT
HETATM    1  O   UNK N   1      29.825  40.345  58.148  0.00  0.00    -0.306 OA
HETATM    2  C   UNK N   1      29.834  41.183  57.112  0.00  0.00     0.119 A 
HETATM    3  C   UNK N   1      29.646  40.687  55.803  0.00  0.00     0.108 A 
HETATM    4  C   UNK N   1      29.416  39.308  55.639  0.00  0.00     0.057 A 
HETATM    5  C   UNK N   1      29.374  38.472  56.761  0.00  0.00     0.034 A 
HETATM    6  C   UNK N   1      29.592  39.046  58.028  0.00  0.00     0.092 A 
HETATM    7  C   UNK N   1      29.555  38.247  59.175  0.00  0.00     0.074 A 
HETATM    8  C   UNK N   1      29.301  36.874  59.069  0.00  0.00     0.071 A 
HETATM    9  C   UNK N   1      29.089  36.298  57.811  0.00  0.00     0.074 A 
HETATM   10  C   UNK N   1      29.125  37.090  56.651  0.00  0.00     0.081 A 
ENDROOT
BRANCH   3  11
HETATM   11  O   UNK N   1      29.751  41.532  54.736  0.00  0.00    -0.315 OA
BRANCH  11  12
HETATM   12  C   UNK N   1      28.976  41.441  53.591  0.00  0.00     0.297 C 
HETATM   13  O   UNK N   1      29.594  42.215  52.568  0.00  0.00    -0.356 OA
HETATM   14  C   UNK N   1      28.908  42.065  51.338  0.00  0.00     0.205 C 
HETATM   15  C   UNK N   1      27.484  42.631  51.434  0.00  0.00     0.173 C 
HETATM   16  C   UNK N   1      26.742  41.894  52.567  0.00  0.00     0.182 C 
HETATM   17  C   UNK N   1      27.557  41.981  53.874  0.00  0.00     0.205 C 
BRANCH  15  18
HETATM   18  O   UNK N   1      26.828  42.449  50.206  0.00  0.00    -0.391 OA
HETATM   19  H   UNK N   1      26.761  41.470  50.059  0.00  0.00     0.210 HD
ENDBRANCH  15  18
BRANCH  16  20
HETATM   20  O   UNK N   1      25.435  42.382  52.743  0.00  0.00    -0.390 OA
HETATM   21  H   UNK N   1      25.105  42.694  51.860  0.00  0.00     0.210 HD
ENDBRANCH  16  20
BRANCH  17  22
HETATM   22  O   UNK N   1      27.627  43.318  54.305  0.00  0.00    -0.388 OA
HETATM   23  H   UNK N   1      28.562  43.619  54.162  0.00  0.00     0.210 HD
ENDBRANCH  17  22
ENDBRANCH  11  12
ENDBRANCH   3  11
BRANCH   2  24
HETATM   24  C   UNK N   1      30.075  42.612  57.391  0.00  0.00     0.001 A 
HETATM   25  C   UNK N   1      28.984  43.449  57.670  0.00  0.00     0.017 A 
HETATM   26  C   UNK N   1      29.181  44.809  57.913  0.00  0.00     0.037 A 
HETATM   27  C   UNK N   1      30.470  45.358  57.842  0.00  0.00     0.065 A 
HETATM   28  C   UNK N   1      31.560  44.531  57.547  0.00  0.00     0.037 A 
HETATM   29  C   UNK N   1      31.369  43.159  57.338  0.00  0.00     0.017 A 
BRANCH  27  30
HETATM   30  O   UNK N   1      30.667  46.674  58.051  0.00  0.00    -0.361 OA
HETATM   31  H   UNK N   1      30.483  47.087  58.907  0.00  0.00     0.217 HD
ENDBRANCH  27  30
ENDBRANCH   2  24
BRANCH  10  32
HETATM   32  O   UNK N   1      28.917  36.526  55.441  0.00  0.00    -0.360 OA
HETATM   33  H   UNK N   1      28.970  37.040  54.623  0.00  0.00     0.217 HD
ENDBRANCH  10  32
BRANCH   8  34
HETATM   34  O   UNK N   1      29.256  36.099  60.172  0.00  0.00    -0.361 OA
HETATM   35  H   UNK N   1      29.762  35.275  60.236  0.00  0.00     0.217 HD
ENDBRANCH   8  34
TORSDOF 9
ENDMDL
MODEL 8
REMARK VINA RESULT:      -5.7     14.674     15.881
REMARK  9 active torsions:
REMARK  status: ('A' for Active; 'I' for Inactive)
REMARK    1  A    between atoms: C_2  and  C_28 
REMARK    2  A    between atoms: C_3  and  O_4 
REMARK    3  A    between atoms: O_4  and  C_5 
REMARK    4  A    between atoms: C_8  and  O_9 
REMARK    5  A    between atoms: C_11  and  O_12 
REMARK    6  A    between atoms: C_14  and  O_15 
REMARK    7  A    between atoms: C_21  and  O_22 
REMARK    8  A    between atoms: C_25  and  O_26 
REMARK    9  A    between atoms: C_31  and  O_32 
ROOT
HETATM    1  O   UNK N   1      51.500  51.168  57.569  0.00  0.00    -0.306 OA
HETATM    2  C   UNK N   1      50.893  50.891  58.723  0.00  0.00     0.119 A 
HETATM    3  C   UNK N   1      49.859  51.728  59.193  0.00  0.00     0.108 A 
HETATM    4  C   UNK N   1      49.471  52.823  58.398  0.00  0.00     0.057 A 
HETATM    5  C   UNK N   1      50.109  53.051  57.172  0.00  0.00     0.034 A 
HETATM    6  C   UNK N   1      51.146  52.179  56.788  0.00  0.00     0.092 A 
HETATM    7  C   UNK N   1      51.806  52.370  55.570  0.00  0.00     0.074 A 
HETATM    8  C   UNK N   1      51.440  53.426  54.728  0.00  0.00     0.071 A 
HETATM    9  C   UNK N   1      50.414  54.299  55.108  0.00  0.00     0.074 A 
HETATM   10  C   UNK N   1      49.743  54.119  56.330  0.00  0.00     0.081 A 
ENDROOT
BRANCH   3  11
HETATM   11  O   UNK N   1      49.305  51.498  60.420  0.00  0.00    -0.315 OA
BRANCH  11  12
HETATM   12  C   UNK N   1      47.985  51.126  60.622  0.00  0.00     0.297 C 
HETATM   13  O   UNK N   1      47.545  51.685  61.856  0.00  0.00    -0.356 OA
HETATM   14  C   UNK N   1      46.166  51.435  62.059  0.00  0.00     0.205 C 
HETATM   15  C   UNK N   1      45.899  49.931  62.207  0.00  0.00     0.173 C 
HETATM   16  C   UNK N   1      46.401  49.219  60.934  0.00  0.00     0.182 C 
HETATM   17  C   UNK N   1      47.876  49.587  60.673  0.00  0.00     0.205 C 
BRANCH  15  18
HETATM   18  O   UNK N   1      44.523  49.719  62.387  0.00  0.00    -0.391 OA
HETATM   19  H   UNK N   1      44.090  50.612  62.368  0.00  0.00     0.210 HD
ENDBRANCH  15  18
BRANCH  16  20
HETATM   20  O   UNK N   1      46.223  47.826  61.007  0.00  0.00    -0.390 OA
HETATM   21  H   UNK N   1      47.108  47.398  60.872  0.00  0.00     0.210 HD
ENDBRANCH  16  20
BRANCH  17  22
HETATM   22  O   UNK N   1      48.685  49.080  61.706  0.00  0.00    -0.388 OA
HETATM   23  H   UNK N   1      48.855  49.830  62.334  0.00  0.00     0.210 HD
ENDBRANCH  17  22
ENDBRANCH  11  12
ENDBRANCH   3  11
BRANCH   2  24
HETATM   24  C   UNK N   1      51.368  49.716  59.478  0.00  0.00     0.001 A 
HETATM   25  C   UNK N   1      51.035  48.430  59.025  0.00  0.00     0.017 A 
HETATM   26  C   UNK N   1      51.449  47.302  59.734  0.00  0.00     0.037 A 
HETATM   27  C   UNK N   1      52.171  47.446  60.928  0.00  0.00     0.065 A 
HETATM   28  C   UNK N   1      52.490  48.726  61.394  0.00  0.00     0.037 A 
HETATM   29  C   UNK N   1      52.106  49.858  60.666  0.00  0.00     0.017 A 
BRANCH  27  30
HETATM   30  O   UNK N   1      52.553  46.362  61.632  0.00  0.00    -0.361 OA
HETATM   31  H   UNK N   1      52.950  45.591  61.203  0.00  0.00     0.217 HD
ENDBRANCH  27  30
ENDBRANCH   2  24
BRANCH  10  32
HETATM   32  O   UNK N   1      48.753  54.964  56.688  0.00  0.00    -0.360 OA
HETATM   33  H   UNK N   1      47.832  54.674  56.752  0.00  0.00     0.217 HD
ENDBRANCH  10  32
BRANCH   8  34
HETATM   34  O   UNK N   1      52.068  53.611  53.548  0.00  0.00    -0.361 OA
HETATM   35  H   UNK N   1      52.557  52.896  53.116  0.00  0.00     0.217 HD
ENDBRANCH   8  34
TORSDOF 9
ENDMDL
MODEL 9
REMARK VINA RESULT:      -5.7     13.222     16.344
REMARK  9 active torsions:
REMARK  status: ('A' for Active; 'I' for Inactive)
REMARK    1  A    between atoms: C_2  and  C_28 
REMARK    2  A    between atoms: C_3  and  O_4 
REMARK    3  A    between atoms: O_4  and  C_5 
REMARK    4  A    between atoms: C_8  and  O_9 
REMARK    5  A    between atoms: C_11  and  O_12 
REMARK    6  A    between atoms: C_14  and  O_15 
REMARK    7  A    between atoms: C_21  and  O_22 
REMARK    8  A    between atoms: C_25  and  O_26 
REMARK    9  A    between atoms: C_31  and  O_32 
ROOT
HETATM    1  O   UNK N   1      29.393  47.815  59.812  0.00  0.00    -0.306 OA
HETATM    2  C   UNK N   1      29.974  46.627  59.649  0.00  0.00     0.119 A 
HETATM    3  C   UNK N   1      30.622  46.319  58.434  0.00  0.00     0.108 A 
HETATM    4  C   UNK N   1      30.665  47.307  57.432  0.00  0.00     0.057 A 
HETATM    5  C   UNK N   1      30.077  48.556  57.662  0.00  0.00     0.034 A 
HETATM    6  C   UNK N   1      29.432  48.772  58.896  0.00  0.00     0.092 A 
HETATM    7  C   UNK N   1      28.835  50.007  59.167  0.00  0.00     0.074 A 
HETATM    8  C   UNK N   1      28.875  51.034  58.216  0.00  0.00     0.071 A 
HETATM    9  C   UNK N   1      29.509  50.822  56.987  0.00  0.00     0.074 A 
HETATM   10  C   UNK N   1      30.112  49.585  56.701  0.00  0.00     0.081 A 
ENDROOT
BRANCH   3  11
HETATM   11  O   UNK N   1      31.133  45.069  58.235  0.00  0.00    -0.315 OA
BRANCH  11  12
HETATM   12  C   UNK N   1      30.625  44.156  57.324  0.00  0.00     0.297 C 
HETATM   13  O   UNK N   1      29.959  43.124  58.045  0.00  0.00    -0.356 OA
HETATM   14  C   UNK N   1      29.319  42.223  57.161  0.00  0.00     0.205 C 
HETATM   15  C   UNK N   1      30.349  41.478  56.299  0.00  0.00     0.173 C 
HETATM   16  C   UNK N   1      31.173  42.521  55.515  0.00  0.00     0.182 C 
HETATM   17  C   UNK N   1      31.776  43.554  56.489  0.00  0.00     0.205 C 
BRANCH  15  18
HETATM   18  O   UNK N   1      29.680  40.609  55.423  0.00  0.00    -0.391 OA
HETATM   19  H   UNK N   1      28.744  40.932  55.357  0.00  0.00     0.210 HD
ENDBRANCH  15  18
BRANCH  16  20
HETATM   20  O   UNK N   1      32.167  41.917  54.725  0.00  0.00    -0.390 OA
HETATM   21  H   UNK N   1      33.049  42.150  55.114  0.00  0.00     0.210 HD
ENDBRANCH  16  20
BRANCH  17  22
HETATM   22  O   UNK N   1      32.709  42.926  57.334  0.00  0.00    -0.388 OA
HETATM   23  H   UNK N   1      33.082  43.631  57.926  0.00  0.00     0.210 HD
ENDBRANCH  17  22
ENDBRANCH  11  12
ENDBRANCH   3  11
BRANCH   2  24
HETATM   24  C   UNK N   1      29.880  45.664  60.764  0.00  0.00     0.001 A 
HETATM   25  C   UNK N   1      30.934  45.576  61.685  0.00  0.00     0.017 A 
HETATM   26  C   UNK N   1      30.883  44.656  62.733  0.00  0.00     0.037 A 
HETATM   27  C   UNK N   1      29.791  43.785  62.852  0.00  0.00     0.065 A 
HETATM   28  C   UNK N   1      28.744  43.855  61.925  0.00  0.00     0.037 A 
HETATM   29  C   UNK N   1      28.777  44.801  60.893  0.00  0.00     0.017 A 
BRANCH  27  30
HETATM   30  O   UNK N   1      29.744  42.876  63.846  0.00  0.00    -0.361 OA
HETATM   31  H   UNK N   1      29.559  43.133  64.761  0.00  0.00     0.217 HD
ENDBRANCH  27  30
ENDBRANCH   2  24
BRANCH  10  32
HETATM   32  O   UNK N   1      30.724  49.390  55.513  0.00  0.00    -0.360 OA
HETATM   33  H   UNK N   1      31.664  49.582  55.385  0.00  0.00     0.217 HD
ENDBRANCH  10  32
BRANCH   8  34
HETATM   34  O   UNK N   1      28.307  52.230  58.475  0.00  0.00    -0.361 OA
HETATM   35  H   UNK N   1      27.352  52.367  58.395  0.00  0.00     0.217 HD
ENDBRANCH   8  34
TORSDOF 9
ENDMDL
