MODEL 1
REMARK VINA RESULT:      -7.2      0.000      0.000
REMARK  7 active torsions:
REMARK  status: ('A' for Active; 'I' for Inactive)
REMARK    1  A    between atoms: C_2  and  O_3 
REMARK    2  A    between atoms: C_2  and  C_5 
REMARK    3  A    between atoms: C_6  and  C_7 
REMARK    4  A    between atoms: C_8  and  C_9 
REMARK    5  A    between atoms: C_12  and  O_13 
REMARK    6  A    between atoms: C_19  and  C_20 
REMARK    7  A    between atoms: C_20  and  O_21 
ROOT
HETATM    1  C   UNK N   1      41.390  45.319  48.489  0.00  0.00     0.041 C 
HETATM    2  C   UNK N   1      40.296  44.275  48.725  0.00  0.00    -0.077 C 
HETATM    3  C   UNK N   1      39.025  44.459  48.316  0.00  0.00     0.008 C 
HETATM    4  C   UNK N   1      38.589  45.681  47.557  0.00  0.00     0.145 C 
HETATM    5  C   UNK N   1      39.765  46.353  46.813  0.00  0.00     0.024 C 
HETATM    6  C   UNK N   1      40.913  46.650  47.809  0.00  0.00     0.008 C 
HETATM    7  C   UNK N   1      42.077  47.380  47.048  0.00  0.00    -0.013 C 
HETATM    8  C   UNK N   1      41.557  48.658  46.361  0.00  0.00     0.011 C 
HETATM    9  C   UNK N   1      40.418  48.335  45.378  0.00  0.00     0.010 C 
HETATM   10  C   UNK N   1      39.273  47.648  46.131  0.00  0.00     0.014 C 
HETATM   11  C   UNK N   1      43.275  47.754  47.934  0.00  0.00     0.010 C 
HETATM   12  C   UNK N   1      40.667  42.979  49.410  0.00  0.00     0.044 C 
ENDROOT
BRANCH   1  13
HETATM   13  C   UNK N   1      42.083  45.596  49.814  0.00  0.00    -0.017 C 
HETATM   14  C   UNK N   1      41.432  45.514  50.990  0.00  0.00    -0.003 C 
BRANCH  14  15
HETATM   15  C   UNK N   1      42.168  45.707  52.265  0.00  0.00     0.006 C 
HETATM   16  C   UNK N   1      42.116  44.890  53.342  0.00  0.00     0.081 C 
BRANCH  16  17
HETATM   17  C   UNK N   1      41.281  43.665  53.496  0.00  0.00     0.165 C 
HETATM   18  O   UNK N   1      41.750  42.551  53.355  0.00  0.00    -0.647 OA
BRANCH  17  19
HETATM   19  O   UNK N   1      39.967  43.788  53.791  0.00  0.00    -0.773 OA
HETATM   20  H   UNK N   1      39.492  44.616  53.643  0.00  0.00     0.167 HD
ENDBRANCH  17  19
ENDBRANCH  16  17
ENDBRANCH  14  15
ENDBRANCH   1  13
BRANCH   4  21
HETATM   21  O   UNK N   1      37.562  45.339  46.658  0.00  0.00    -0.391 OA
HETATM   22  H   UNK N   1      37.837  44.509  46.188  0.00  0.00     0.210 HD
ENDBRANCH   4  21
BRANCH   9  23
HETATM   23  C   UNK N   1      39.913  49.612  44.680  0.00  0.00     0.168 C 
BRANCH  23  24
HETATM   24  O   UNK N   1      39.564  49.354  43.347  0.00  0.00    -0.400 OA
HETATM   25  H   UNK N   1      39.378  48.381  43.284  0.00  0.00     0.209 HD
ENDBRANCH  23  24
ENDBRANCH   9  23
TORSDOF 7
ENDMDL
MODEL 2
REMARK VINA RESULT:      -6.8      1.797      7.423
REMARK  7 active torsions:
REMARK  status: ('A' for Active; 'I' for Inactive)
REMARK    1  A    between atoms: C_2  and  O_3 
REMARK    2  A    between atoms: C_2  and  C_5 
REMARK    3  A    between atoms: C_6  and  C_7 
REMARK    4  A    between atoms: C_8  and  C_9 
REMARK    5  A    between atoms: C_12  and  O_13 
REMARK    6  A    between atoms: C_19  and  C_20 
REMARK    7  A    between atoms: C_20  and  O_21 
ROOT
HETATM    1  C   UNK N   1      40.966  46.975  46.985  0.00  0.00     0.041 C 
HETATM    2  C   UNK N   1      42.233  47.828  47.088  0.00  0.00    -0.077 C 
HETATM    3  C   UNK N   1      42.936  47.940  48.233  0.00  0.00     0.008 C 
HETATM    4  C   UNK N   1      42.560  47.201  49.487  0.00  0.00     0.145 C 
HETATM    5  C   UNK N   1      41.730  45.932  49.188  0.00  0.00     0.024 C 
HETATM    6  C   UNK N   1      40.499  46.304  48.325  0.00  0.00     0.008 C 
HETATM    7  C   UNK N   1      39.639  45.013  48.074  0.00  0.00    -0.013 C 
HETATM    8  C   UNK N   1      39.237  44.363  49.413  0.00  0.00     0.011 C 
HETATM    9  C   UNK N   1      40.477  44.005  50.250  0.00  0.00     0.010 C 
HETATM   10  C   UNK N   1      41.298  45.272  50.515  0.00  0.00     0.014 C 
HETATM   11  C   UNK N   1      38.368  45.251  47.245  0.00  0.00     0.010 C 
HETATM   12  C   UNK N   1      42.730  48.540  45.850  0.00  0.00     0.044 C 
ENDROOT
BRANCH   1  13
HETATM   13  C   UNK N   1      39.861  47.828  46.383  0.00  0.00    -0.017 C 
HETATM   14  C   UNK N   1      39.622  49.085  46.802  0.00  0.00    -0.003 C 
BRANCH  14  15
HETATM   15  C   UNK N   1      38.591  49.913  46.126  0.00  0.00     0.006 C 
HETATM   16  C   UNK N   1      38.603  50.289  44.827  0.00  0.00     0.081 C 
BRANCH  16  17
HETATM   17  C   UNK N   1      39.665  50.000  43.821  0.00  0.00     0.165 C 
HETATM   18  O   UNK N   1      40.764  50.518  43.885  0.00  0.00    -0.647 OA
BRANCH  17  19
HETATM   19  O   UNK N   1      39.403  49.148  42.804  0.00  0.00    -0.773 OA
HETATM   20  H   UNK N   1      39.586  49.387  41.886  0.00  0.00     0.167 HD
ENDBRANCH  17  19
ENDBRANCH  16  17
ENDBRANCH  14  15
ENDBRANCH   1  13
BRANCH   4  21
HETATM   21  O   UNK N   1      43.720  46.877  50.213  0.00  0.00    -0.391 OA
HETATM   22  H   UNK N   1      43.457  46.252  50.939  0.00  0.00     0.210 HD
ENDBRANCH   4  21
BRANCH   9  23
HETATM   23  C   UNK N   1      40.072  43.339  51.579  0.00  0.00     0.168 C 
BRANCH  23  24
HETATM   24  O   UNK N   1      40.452  44.126  52.675  0.00  0.00    -0.400 OA
HETATM   25  H   UNK N   1      39.832  44.902  52.697  0.00  0.00     0.209 HD
ENDBRANCH  23  24
ENDBRANCH   9  23
TORSDOF 7
ENDMDL
MODEL 3
REMARK VINA RESULT:      -6.6     11.009     15.425
REMARK  7 active torsions:
REMARK  status: ('A' for Active; 'I' for Inactive)
REMARK    1  A    between atoms: C_2  and  O_3 
REMARK    2  A    between atoms: C_2  and  C_5 
REMARK    3  A    between atoms: C_6  and  C_7 
REMARK    4  A    between atoms: C_8  and  C_9 
REMARK    5  A    between atoms: C_12  and  O_13 
REMARK    6  A    between atoms: C_19  and  C_20 
REMARK    7  A    between atoms: C_20  and  O_21 
ROOT
HETATM    1  C   UNK N   1      30.449  54.146  41.328  0.00  0.00     0.041 C 
HETATM    2  C   UNK N   1      30.345  55.470  42.090  0.00  0.00    -0.077 C 
HETATM    3  C   UNK N   1      30.633  55.570  43.403  0.00  0.00     0.008 C 
HETATM    4  C   UNK N   1      31.122  54.403  44.215  0.00  0.00     0.145 C 
HETATM    5  C   UNK N   1      31.799  53.327  43.335  0.00  0.00     0.024 C 
HETATM    6  C   UNK N   1      30.837  52.899  42.199  0.00  0.00     0.008 C 
HETATM    7  C   UNK N   1      31.520  51.769  41.348  0.00  0.00    -0.013 C 
HETATM    8  C   UNK N   1      31.922  50.583  42.247  0.00  0.00     0.011 C 
HETATM    9  C   UNK N   1      32.875  51.034  43.367  0.00  0.00     0.010 C 
HETATM   10  C   UNK N   1      32.195  52.118  44.211  0.00  0.00     0.014 C 
HETATM   11  C   UNK N   1      30.656  51.237  40.195  0.00  0.00     0.010 C 
HETATM   12  C   UNK N   1      29.939  56.713  41.330  0.00  0.00     0.044 C 
ENDROOT
BRANCH   1  13
HETATM   13  C   UNK N   1      29.141  53.914  40.588  0.00  0.00    -0.017 C 
HETATM   14  C   UNK N   1      28.028  53.499  41.222  0.00  0.00    -0.003 C 
BRANCH  14  15
HETATM   15  C   UNK N   1      26.750  53.370  40.475  0.00  0.00     0.006 C 
HETATM   16  C   UNK N   1      26.030  52.234  40.329  0.00  0.00     0.081 C 
BRANCH  16  17
HETATM   17  C   UNK N   1      26.384  50.877  40.836  0.00  0.00     0.165 C 
HETATM   18  O   UNK N   1      27.200  50.176  40.267  0.00  0.00    -0.647 OA
BRANCH  17  19
HETATM   19  O   UNK N   1      25.781  50.406  41.950  0.00  0.00    -0.773 OA
HETATM   20  H   UNK N   1      25.118  50.926  42.425  0.00  0.00     0.167 HD
ENDBRANCH  17  19
ENDBRANCH  16  17
ENDBRANCH  14  15
ENDBRANCH   1  13
BRANCH   4  21
HETATM   21  O   UNK N   1      32.003  54.856  45.213  0.00  0.00    -0.391 OA
HETATM   22  H   UNK N   1      32.482  55.649  44.855  0.00  0.00     0.210 HD
ENDBRANCH   4  21
BRANCH   9  23
HETATM   23  C   UNK N   1      33.290  49.844  44.252  0.00  0.00     0.168 C 
BRANCH  23  24
HETATM   24  O   UNK N   1      33.705  48.755  43.472  0.00  0.00    -0.400 OA
HETATM   25  H   UNK N   1      34.248  48.172  44.064  0.00  0.00     0.209 HD
ENDBRANCH  23  24
ENDBRANCH   9  23
TORSDOF 7
ENDMDL
MODEL 4
REMARK VINA RESULT:      -6.6      3.258      5.097
REMARK  7 active torsions:
REMARK  status: ('A' for Active; 'I' for Inactive)
REMARK    1  A    between atoms: C_2  and  O_3 
REMARK    2  A    between atoms: C_2  and  C_5 
REMARK    3  A    between atoms: C_6  and  C_7 
REMARK    4  A    between atoms: C_8  and  C_9 
REMARK    5  A    between atoms: C_12  and  O_13 
REMARK    6  A    between atoms: C_19  and  C_20 
REMARK    7  A    between atoms: C_20  and  O_21 
ROOT
HETATM    1  C   UNK N   1      40.956  44.644  48.919  0.00  0.00     0.041 C 
HETATM    2  C   UNK N   1      41.881  44.977  50.092  0.00  0.00    -0.077 C 
HETATM    3  C   UNK N   1      42.592  46.121  50.146  0.00  0.00     0.008 C 
HETATM    4  C   UNK N   1      42.500  47.182  49.085  0.00  0.00     0.145 C 
HETATM    5  C   UNK N   1      41.162  47.116  48.313  0.00  0.00     0.024 C 
HETATM    6  C   UNK N   1      40.953  45.689  47.748  0.00  0.00     0.008 C 
HETATM    7  C   UNK N   1      39.617  45.655  46.924  0.00  0.00    -0.013 C 
HETATM    8  C   UNK N   1      39.639  46.723  45.812  0.00  0.00     0.011 C 
HETATM    9  C   UNK N   1      39.848  48.130  46.400  0.00  0.00     0.010 C 
HETATM   10  C   UNK N   1      41.167  48.166  47.181  0.00  0.00     0.014 C 
HETATM   11  C   UNK N   1      39.302  44.293  46.286  0.00  0.00     0.010 C 
HETATM   12  C   UNK N   1      41.970  44.002  51.244  0.00  0.00     0.044 C 
ENDROOT
BRANCH   1  13
HETATM   13  C   UNK N   1      41.305  43.253  48.412  0.00  0.00    -0.017 C 
HETATM   14  C   UNK N   1      42.194  43.058  47.421  0.00  0.00    -0.003 C 
BRANCH  14  15
HETATM   15  C   UNK N   1      42.570  41.678  47.018  0.00  0.00     0.006 C 
HETATM   16  C   UNK N   1      43.184  41.330  45.864  0.00  0.00     0.081 C 
BRANCH  16  17
HETATM   17  C   UNK N   1      43.566  42.236  44.743  0.00  0.00     0.165 C 
HETATM   18  O   UNK N   1      44.703  42.275  44.313  0.00  0.00    -0.647 OA
BRANCH  17  19
HETATM   19  O   UNK N   1      42.632  43.044  44.194  0.00  0.00    -0.773 OA
HETATM   20  H   UNK N   1      42.797  43.986  44.054  0.00  0.00     0.167 HD
ENDBRANCH  17  19
ENDBRANCH  16  17
ENDBRANCH  14  15
ENDBRANCH   1  13
BRANCH   4  21
HETATM   21  O   UNK N   1      42.678  48.450  49.665  0.00  0.00    -0.391 OA
HETATM   22  H   UNK N   1      43.155  48.323  50.527  0.00  0.00     0.210 HD
ENDBRANCH   4  21
BRANCH   9  23
HETATM   23  C   UNK N   1      39.851  49.196  45.289  0.00  0.00     0.168 C 
BRANCH  23  24
HETATM   24  O   UNK N   1      39.662  48.613  44.028  0.00  0.00    -0.400 OA
HETATM   25  H   UNK N   1      38.872  48.017  44.106  0.00  0.00     0.209 HD
ENDBRANCH  23  24
ENDBRANCH   9  23
TORSDOF 7
ENDMDL
MODEL 5
REMARK VINA RESULT:      -6.4      1.712      3.297
REMARK  7 active torsions:
REMARK  status: ('A' for Active; 'I' for Inactive)
REMARK    1  A    between atoms: C_2  and  O_3 
REMARK    2  A    between atoms: C_2  and  C_5 
REMARK    3  A    between atoms: C_6  and  C_7 
REMARK    4  A    between atoms: C_8  and  C_9 
REMARK    5  A    between atoms: C_12  and  O_13 
REMARK    6  A    between atoms: C_19  and  C_20 
REMARK    7  A    between atoms: C_20  and  O_21 
ROOT
HETATM    1  C   UNK N   1      41.187  46.716  48.683  0.00  0.00     0.041 C 
HETATM    2  C   UNK N   1      42.636  47.163  48.891  0.00  0.00    -0.077 C 
HETATM    3  C   UNK N   1      43.355  47.752  47.915  0.00  0.00     0.008 C 
HETATM    4  C   UNK N   1      42.780  48.059  46.560  0.00  0.00     0.145 C 
HETATM    5  C   UNK N   1      41.241  48.190  46.599  0.00  0.00     0.024 C 
HETATM    6  C   UNK N   1      40.623  46.919  47.233  0.00  0.00     0.008 C 
HETATM    7  C   UNK N   1      39.058  47.047  47.216  0.00  0.00    -0.013 C 
HETATM    8  C   UNK N   1      38.549  47.286  45.781  0.00  0.00     0.011 C 
HETATM    9  C   UNK N   1      39.178  48.553  45.174  0.00  0.00     0.010 C 
HETATM   10  C   UNK N   1      40.705  48.413  45.168  0.00  0.00     0.014 C 
HETATM   11  C   UNK N   1      38.318  45.833  47.800  0.00  0.00     0.010 C 
HETATM   12  C   UNK N   1      43.267  46.967  50.251  0.00  0.00     0.044 C 
ENDROOT
BRANCH   1  13
HETATM   13  C   UNK N   1      41.064  45.265  49.123  0.00  0.00    -0.017 C 
HETATM   14  C   UNK N   1      40.613  44.927  50.345  0.00  0.00    -0.003 C 
BRANCH  14  15
HETATM   15  C   UNK N   1      40.426  43.496  50.700  0.00  0.00     0.006 C 
HETATM   16  C   UNK N   1      40.400  42.989  51.954  0.00  0.00     0.081 C 
BRANCH  16  17
HETATM   17  C   UNK N   1      40.599  43.738  53.228  0.00  0.00     0.165 C 
HETATM   18  O   UNK N   1      39.661  44.205  53.847  0.00  0.00    -0.647 OA
BRANCH  17  19
HETATM   19  O   UNK N   1      41.850  43.913  53.707  0.00  0.00    -0.773 OA
HETATM   20  H   UNK N   1      42.621  43.544  53.254  0.00  0.00     0.167 HD
ENDBRANCH  17  19
ENDBRANCH  16  17
ENDBRANCH  14  15
ENDBRANCH   1  13
BRANCH   4  21
HETATM   21  O   UNK N   1      43.367  49.231  46.050  0.00  0.00    -0.391 OA
HETATM   22  H   UNK N   1      43.588  49.817  46.821  0.00  0.00     0.210 HD
ENDBRANCH   4  21
BRANCH   9  23
HETATM   23  C   UNK N   1      38.654  48.799  43.747  0.00  0.00     0.168 C 
BRANCH  23  24
HETATM   24  O   UNK N   1      39.589  49.511  42.982  0.00  0.00    -0.400 OA
HETATM   25  H   UNK N   1      39.803  50.337  43.489  0.00  0.00     0.209 HD
ENDBRANCH  23  24
ENDBRANCH   9  23
TORSDOF 7
ENDMDL
MODEL 6
REMARK VINA RESULT:      -6.2     10.472     14.709
REMARK  7 active torsions:
REMARK  status: ('A' for Active; 'I' for Inactive)
REMARK    1  A    between atoms: C_2  and  O_3 
REMARK    2  A    between atoms: C_2  and  C_5 
REMARK    3  A    between atoms: C_6  and  C_7 
REMARK    4  A    between atoms: C_8  and  C_9 
REMARK    5  A    between atoms: C_12  and  O_13 
REMARK    6  A    between atoms: C_19  and  C_20 
REMARK    7  A    between atoms: C_20  and  O_21 
ROOT
HETATM    1  C   UNK N   1      31.326  51.837  42.366  0.00  0.00     0.041 C 
HETATM    2  C   UNK N   1      32.012  50.471  42.438  0.00  0.00    -0.077 C 
HETATM    3  C   UNK N   1      33.191  50.289  43.066  0.00  0.00     0.008 C 
HETATM    4  C   UNK N   1      33.904  51.400  43.786  0.00  0.00     0.145 C 
HETATM    5  C   UNK N   1      32.935  52.520  44.228  0.00  0.00     0.024 C 
HETATM    6  C   UNK N   1      32.127  53.025  43.007  0.00  0.00     0.008 C 
HETATM    7  C   UNK N   1      31.187  54.198  43.463  0.00  0.00    -0.013 C 
HETATM    8  C   UNK N   1      32.008  55.324  44.123  0.00  0.00     0.011 C 
HETATM    9  C   UNK N   1      32.801  54.796  45.331  0.00  0.00     0.010 C 
HETATM   10  C   UNK N   1      33.737  53.670  44.876  0.00  0.00     0.014 C 
HETATM   11  C   UNK N   1      30.342  54.807  42.334  0.00  0.00     0.010 C 
HETATM   12  C   UNK N   1      31.323  49.280  41.810  0.00  0.00     0.044 C 
ENDROOT
BRANCH   1  13
HETATM   13  C   UNK N   1      30.982  52.126  40.914  0.00  0.00    -0.017 C 
HETATM   14  C   UNK N   1      29.708  52.178  40.480  0.00  0.00    -0.003 C 
BRANCH  14  15
HETATM   15  C   UNK N   1      29.415  52.550  39.072  0.00  0.00     0.006 C 
HETATM   16  C   UNK N   1      28.478  53.437  38.666  0.00  0.00     0.081 C 
BRANCH  16  17
HETATM   17  C   UNK N   1      27.519  54.184  39.528  0.00  0.00     0.165 C 
HETATM   18  O   UNK N   1      27.738  55.326  39.888  0.00  0.00    -0.647 OA
BRANCH  17  19
HETATM   19  O   UNK N   1      26.379  53.581  39.932  0.00  0.00    -0.773 OA
HETATM   20  H   UNK N   1      26.282  53.232  40.829  0.00  0.00     0.167 HD
ENDBRANCH  17  19
ENDBRANCH  16  17
ENDBRANCH  14  15
ENDBRANCH   1  13
BRANCH   4  21
HETATM   21  O   UNK N   1      34.599  50.879  44.892  0.00  0.00    -0.391 OA
HETATM   22  H   UNK N   1      35.332  50.305  44.543  0.00  0.00     0.210 HD
ENDBRANCH   4  21
BRANCH   9  23
HETATM   23  C   UNK N   1      33.606  55.927  45.999  0.00  0.00     0.168 C 
BRANCH  23  24
HETATM   24  O   UNK N   1      34.173  56.778  45.040  0.00  0.00    -0.400 OA
HETATM   25  H   UNK N   1      34.175  57.689  45.434  0.00  0.00     0.209 HD
ENDBRANCH  23  24
ENDBRANCH   9  23
TORSDOF 7
ENDMDL
MODEL 7
REMARK VINA RESULT:      -6.1      3.451      4.991
REMARK  7 active torsions:
REMARK  status: ('A' for Active; 'I' for Inactive)
REMARK    1  A    between atoms: C_2  and  O_3 
REMARK    2  A    between atoms: C_2  and  C_5 
REMARK    3  A    between atoms: C_6  and  C_7 
REMARK    4  A    between atoms: C_8  and  C_9 
REMARK    5  A    between atoms: C_12  and  O_13 
REMARK    6  A    between atoms: C_19  and  C_20 
REMARK    7  A    between atoms: C_20  and  O_21 
ROOT
HETATM    1  C   UNK N   1      41.177  46.590  48.048  0.00  0.00     0.041 C 
HETATM    2  C   UNK N   1      42.565  46.975  48.566  0.00  0.00    -0.077 C 
HETATM    3  C   UNK N   1      43.394  47.780  47.871  0.00  0.00     0.008 C 
HETATM    4  C   UNK N   1      43.008  48.400  46.558  0.00  0.00     0.145 C 
HETATM    5  C   UNK N   1      41.474  48.517  46.400  0.00  0.00     0.024 C 
HETATM    6  C   UNK N   1      40.818  47.132  46.620  0.00  0.00     0.008 C 
HETATM    7  C   UNK N   1      39.268  47.259  46.404  0.00  0.00    -0.013 C 
HETATM    8  C   UNK N   1      38.961  47.832  45.006  0.00  0.00     0.011 C 
HETATM    9  C   UNK N   1      39.624  49.207  44.814  0.00  0.00     0.010 C 
HETATM   10  C   UNK N   1      41.140  49.073  44.998  0.00  0.00     0.014 C 
HETATM   11  C   UNK N   1      38.496  45.941  46.571  0.00  0.00     0.010 C 
HETATM   12  C   UNK N   1      43.002  46.462  49.919  0.00  0.00     0.044 C 
ENDROOT
BRANCH   1  13
HETATM   13  C   UNK N   1      41.044  45.076  48.111  0.00  0.00    -0.017 C 
HETATM   14  C   UNK N   1      41.736  44.266  47.288  0.00  0.00    -0.003 C 
BRANCH  14  15
HETATM   15  C   UNK N   1      41.643  42.791  47.443  0.00  0.00     0.006 C 
HETATM   16  C   UNK N   1      42.394  41.877  46.788  0.00  0.00     0.081 C 
BRANCH  16  17
HETATM   17  C   UNK N   1      43.429  42.147  45.749  0.00  0.00     0.165 C 
HETATM   18  O   UNK N   1      43.134  42.298  44.578  0.00  0.00    -0.647 OA
BRANCH  17  19
HETATM   19  O   UNK N   1      44.730  42.219  46.109  0.00  0.00    -0.773 OA
HETATM   20  H   UNK N   1      45.342  42.826  45.672  0.00  0.00     0.167 HD
ENDBRANCH  17  19
ENDBRANCH  16  17
ENDBRANCH  14  15
ENDBRANCH   1  13
BRANCH   4  21
HETATM   21  O   UNK N   1      43.619  49.660  46.429  0.00  0.00    -0.391 OA
HETATM   22  H   UNK N   1      44.547  49.581  46.775  0.00  0.00     0.210 HD
ENDBRANCH   4  21
BRANCH   9  23
HETATM   23  C   UNK N   1      39.301  49.786  43.424  0.00  0.00     0.168 C 
BRANCH  23  24
HETATM   24  O   UNK N   1      39.875  51.054  43.258  0.00  0.00    -0.400 OA
HETATM   25  H   UNK N   1      39.533  51.621  43.998  0.00  0.00     0.209 HD
ENDBRANCH  23  24
ENDBRANCH   9  23
TORSDOF 7
ENDMDL
MODEL 8
REMARK VINA RESULT:      -5.9     11.497     16.113
REMARK  7 active torsions:
REMARK  status: ('A' for Active; 'I' for Inactive)
REMARK    1  A    between atoms: C_2  and  O_3 
REMARK    2  A    between atoms: C_2  and  C_5 
REMARK    3  A    between atoms: C_6  and  C_7 
REMARK    4  A    between atoms: C_8  and  C_9 
REMARK    5  A    between atoms: C_12  and  O_13 
REMARK    6  A    between atoms: C_19  and  C_20 
REMARK    7  A    between atoms: C_20  and  O_21 
ROOT
HETATM    1  C   UNK N   1      30.414  54.196  41.330  0.00  0.00     0.041 C 
HETATM    2  C   UNK N   1      30.341  55.511  42.109  0.00  0.00    -0.077 C 
HETATM    3  C   UNK N   1      30.648  55.590  43.419  0.00  0.00     0.008 C 
HETATM    4  C   UNK N   1      31.131  54.406  44.210  0.00  0.00     0.145 C 
HETATM    5  C   UNK N   1      31.778  53.330  43.308  0.00  0.00     0.024 C 
HETATM    6  C   UNK N   1      30.794  52.932  42.180  0.00  0.00     0.008 C 
HETATM    7  C   UNK N   1      31.446  51.802  41.305  0.00  0.00    -0.013 C 
HETATM    8  C   UNK N   1      31.842  50.599  42.184  0.00  0.00     0.011 C 
HETATM    9  C   UNK N   1      32.818  51.021  43.296  0.00  0.00     0.010 C 
HETATM   10  C   UNK N   1      32.167  52.105  44.163  0.00  0.00     0.014 C 
HETATM   11  C   UNK N   1      30.558  51.298  40.158  0.00  0.00     0.010 C 
HETATM   12  C   UNK N   1      29.945  56.770  41.370  0.00  0.00     0.044 C 
ENDROOT
BRANCH   1  13
HETATM   13  C   UNK N   1      29.092  53.993  40.605  0.00  0.00    -0.017 C 
HETATM   14  C   UNK N   1      27.951  53.724  41.267  0.00  0.00    -0.003 C 
BRANCH  14  15
HETATM   15  C   UNK N   1      26.667  53.621  40.527  0.00  0.00     0.006 C 
HETATM   16  C   UNK N   1      25.726  54.588  40.434  0.00  0.00     0.081 C 
BRANCH  16  17
HETATM   17  C   UNK N   1      25.752  55.928  41.087  0.00  0.00     0.165 C 
HETATM   18  O   UNK N   1      25.124  56.156  42.104  0.00  0.00    -0.647 OA
BRANCH  17  19
HETATM   19  O   UNK N   1      26.483  56.922  40.535  0.00  0.00    -0.773 OA
HETATM   20  H   UNK N   1      27.430  56.821  40.370  0.00  0.00     0.167 HD
ENDBRANCH  17  19
ENDBRANCH  16  17
ENDBRANCH  14  15
ENDBRANCH   1  13
BRANCH   4  21
HETATM   21  O   UNK N   1      32.032  54.832  45.201  0.00  0.00    -0.391 OA
HETATM   22  H   UNK N   1      32.742  54.141  45.280  0.00  0.00     0.210 HD
ENDBRANCH   4  21
BRANCH   9  23
HETATM   23  C   UNK N   1      33.226  49.814  44.160  0.00  0.00     0.168 C 
BRANCH  23  24
HETATM   24  O   UNK N   1      33.710  48.764  43.366  0.00  0.00    -0.400 OA
HETATM   25  H   UNK N   1      34.515  49.110  42.898  0.00  0.00     0.209 HD
ENDBRANCH  23  24
ENDBRANCH   9  23
TORSDOF 7
ENDMDL
MODEL 9
REMARK VINA RESULT:      -5.8      1.987      2.968
REMARK  7 active torsions:
REMARK  status: ('A' for Active; 'I' for Inactive)
REMARK    1  A    between atoms: C_2  and  O_3 
REMARK    2  A    between atoms: C_2  and  C_5 
REMARK    3  A    between atoms: C_6  and  C_7 
REMARK    4  A    between atoms: C_8  and  C_9 
REMARK    5  A    between atoms: C_12  and  O_13 
REMARK    6  A    between atoms: C_19  and  C_20 
REMARK    7  A    between atoms: C_20  and  O_21 
ROOT
HETATM    1  C   UNK N   1      40.286  45.233  48.392  0.00  0.00     0.041 C 
HETATM    2  C   UNK N   1      39.124  45.070  47.409  0.00  0.00    -0.077 C 
HETATM    3  C   UNK N   1      38.866  45.974  46.443  0.00  0.00     0.008 C 
HETATM    4  C   UNK N   1      39.723  47.190  46.223  0.00  0.00     0.145 C 
HETATM    5  C   UNK N   1      41.159  46.993  46.761  0.00  0.00     0.024 C 
HETATM    6  C   UNK N   1      41.106  46.563  48.248  0.00  0.00     0.008 C 
HETATM    7  C   UNK N   1      42.572  46.419  48.792  0.00  0.00    -0.013 C 
HETATM    8  C   UNK N   1      43.354  47.732  48.594  0.00  0.00     0.011 C 
HETATM    9  C   UNK N   1      43.391  48.137  47.110  0.00  0.00     0.010 C 
HETATM   10  C   UNK N   1      41.958  48.303  46.590  0.00  0.00     0.014 C 
HETATM   11  C   UNK N   1      42.661  46.016  50.272  0.00  0.00     0.010 C 
HETATM   12  C   UNK N   1      38.261  43.832  47.506  0.00  0.00     0.044 C 
ENDROOT
BRANCH   1  13
HETATM   13  C   UNK N   1      39.745  45.070  49.804  0.00  0.00    -0.017 C 
HETATM   14  C   UNK N   1      40.060  44.009  50.570  0.00  0.00    -0.003 C 
BRANCH  14  15
HETATM   15  C   UNK N   1      39.581  43.935  51.974  0.00  0.00     0.006 C 
HETATM   16  C   UNK N   1      40.360  43.790  53.070  0.00  0.00     0.081 C 
BRANCH  16  17
HETATM   17  C   UNK N   1      41.842  43.628  53.101  0.00  0.00     0.165 C 
HETATM   18  O   UNK N   1      42.588  44.586  53.178  0.00  0.00    -0.647 OA
BRANCH  17  19
HETATM   19  O   UNK N   1      42.376  42.388  53.034  0.00  0.00    -0.773 OA
HETATM   20  H   UNK N   1      42.213  41.808  52.277  0.00  0.00     0.167 HD
ENDBRANCH  17  19
ENDBRANCH  16  17
ENDBRANCH  14  15
ENDBRANCH   1  13
BRANCH   4  21
HETATM   21  O   UNK N   1      39.744  47.514  44.855  0.00  0.00    -0.391 OA
HETATM   22  H   UNK N   1      39.905  46.675  44.349  0.00  0.00     0.210 HD
ENDBRANCH   4  21
BRANCH   9  23
HETATM   23  C   UNK N   1      44.189  49.439  46.913  0.00  0.00     0.168 C 
BRANCH  23  24
HETATM   24  O   UNK N   1      45.569  49.194  46.928  0.00  0.00    -0.400 OA
HETATM   25  H   UNK N   1      45.721  48.460  47.579  0.00  0.00     0.209 HD
ENDBRANCH  23  24
ENDBRANCH   9  23
TORSDOF 7
ENDMDL
