MODEL 1
REMARK VINA RESULT:      -7.0      0.000      0.000
REMARK  6 active torsions:
REMARK  status: ('A' for Active; 'I' for Inactive)
REMARK    1  A    between atoms: C_2  and  O_3 
REMARK    2  A    between atoms: C_2  and  C_5 
REMARK    3  A    between atoms: C_6  and  C_7 
REMARK    4  A    between atoms: C_8  and  C_9 
REMARK    5  A    between atoms: C_17  and  C_18 
REMARK    6  A    between atoms: C_18  and  O_20 
ROOT
HETATM    1  C   UNK N   1      41.651  45.652  47.987  0.00  0.00     0.020 C 
HETATM    2  C   UNK N   1      41.073  45.444  49.421  0.00  0.00     0.005 C 
HETATM    3  C   UNK N   1      42.254  45.575  50.445  0.00  0.00     0.014 C 
HETATM    4  C   UNK N   1      43.162  46.753  50.184  0.00  0.00    -0.025 C 
HETATM    5  C   UNK N   1      43.164  47.436  49.034  0.00  0.00    -0.025 C 
HETATM    6  C   UNK N   1      42.288  47.080  47.859  0.00  0.00     0.012 C 
HETATM    7  C   UNK N   1      41.272  48.227  47.679  0.00  0.00     0.015 C 
HETATM    8  C   UNK N   1      41.685  45.662  51.877  0.00  0.00     0.024 C 
HETATM    9  C   UNK N   1      40.900  44.391  52.249  0.00  0.00     0.084 C 
HETATM   10  C   UNK N   1      39.807  44.128  51.193  0.00  0.00     0.020 C 
HETATM   11  C   UNK N   1      40.343  44.083  49.737  0.00  0.00    -0.012 C 
HETATM   12  C   UNK N   1      39.147  43.753  48.828  0.00  0.00     0.010 C 
ENDROOT
BRANCH   1  13
HETATM   13  C   UNK N   1      40.629  45.491  46.875  0.00  0.00    -0.021 C 
HETATM   14  C   UNK N   1      40.841  44.859  45.705  0.00  0.00    -0.003 C 
BRANCH  14  15
HETATM   15  C   UNK N   1      42.112  44.198  45.319  0.00  0.00     0.006 C 
HETATM   16  C   UNK N   1      42.366  42.947  45.738  0.00  0.00     0.081 C 
BRANCH  16  17
HETATM   17  C   UNK N   1      43.615  42.229  45.390  0.00  0.00     0.165 C 
HETATM   18  O   UNK N   1      44.587  42.278  46.123  0.00  0.00    -0.647 OA
BRANCH  17  19
HETATM   19  O   UNK N   1      43.681  41.509  44.249  0.00  0.00    -0.773 OA
HETATM   20  H   UNK N   1      44.491  41.472  43.721  0.00  0.00     0.167 HD
ENDBRANCH  17  19
ENDBRANCH  16  17
ENDBRANCH  14  15
ENDBRANCH   1  13
BRANCH   9  21
HETATM   21  C   UNK N   1      41.831  43.216  52.485  0.00  0.00     0.143 C 
HETATM   22  O   UNK N   1      42.070  42.410  51.597  0.00  0.00    -0.650 OA
BRANCH  21  23
HETATM   23  O   UNK N   1      42.356  43.031  53.716  0.00  0.00    -0.776 OA
HETATM   24  H   UNK N   1      41.924  42.465  54.370  0.00  0.00     0.167 HD
ENDBRANCH  21  23
ENDBRANCH   9  21
TORSDOF 6
ENDMDL
MODEL 2
REMARK VINA RESULT:      -6.3      3.447      4.871
REMARK  6 active torsions:
REMARK  status: ('A' for Active; 'I' for Inactive)
REMARK    1  A    between atoms: C_2  and  O_3 
REMARK    2  A    between atoms: C_2  and  C_5 
REMARK    3  A    between atoms: C_6  and  C_7 
REMARK    4  A    between atoms: C_8  and  C_9 
REMARK    5  A    between atoms: C_17  and  C_18 
REMARK    6  A    between atoms: C_18  and  O_20 
ROOT
HETATM    1  C   UNK N   1      40.402  46.482  48.006  0.00  0.00     0.020 C 
HETATM    2  C   UNK N   1      41.046  45.449  48.981  0.00  0.00     0.005 C 
HETATM    3  C   UNK N   1      39.898  44.562  49.577  0.00  0.00     0.014 C 
HETATM    4  C   UNK N   1      38.901  44.079  48.550  0.00  0.00    -0.025 C 
HETATM    5  C   UNK N   1      38.809  44.596  47.319  0.00  0.00    -0.025 C 
HETATM    6  C   UNK N   1      39.664  45.741  46.837  0.00  0.00     0.012 C 
HETATM    7  C   UNK N   1      40.591  45.189  45.733  0.00  0.00     0.015 C 
HETATM    8  C   UNK N   1      40.512  43.354  50.316  0.00  0.00     0.024 C 
HETATM    9  C   UNK N   1      41.396  43.804  51.493  0.00  0.00     0.084 C 
HETATM   10  C   UNK N   1      42.464  44.796  50.990  0.00  0.00     0.020 C 
HETATM   11  C   UNK N   1      41.879  45.998  50.201  0.00  0.00    -0.012 C 
HETATM   12  C   UNK N   1      43.061  46.910  49.831  0.00  0.00     0.010 C 
ENDROOT
BRANCH   1  13
HETATM   13  C   UNK N   1      41.391  47.458  47.393  0.00  0.00    -0.021 C 
HETATM   14  C   UNK N   1      41.105  48.361  46.435  0.00  0.00    -0.003 C 
BRANCH  14  15
HETATM   15  C   UNK N   1      39.764  48.557  45.831  0.00  0.00     0.006 C 
HETATM   16  C   UNK N   1      39.661  48.859  44.525  0.00  0.00     0.081 C 
BRANCH  16  17
HETATM   17  C   UNK N   1      38.354  49.069  43.858  0.00  0.00     0.165 C 
HETATM   18  O   UNK N   1      37.941  50.194  43.637  0.00  0.00    -0.647 OA
BRANCH  17  19
HETATM   19  O   UNK N   1      37.609  48.004  43.488  0.00  0.00    -0.773 OA
HETATM   20  H   UNK N   1      37.998  47.257  43.011  0.00  0.00     0.167 HD
ENDBRANCH  17  19
ENDBRANCH  16  17
ENDBRANCH  14  15
ENDBRANCH   1  13
BRANCH   9  21
HETATM   21  C   UNK N   1      40.558  44.327  52.645  0.00  0.00     0.143 C 
HETATM   22  O   UNK N   1      40.954  45.241  53.353  0.00  0.00    -0.650 OA
BRANCH  21  23
HETATM   23  O   UNK N   1      39.379  43.727  52.924  0.00  0.00    -0.776 OA
HETATM   24  H   UNK N   1      38.559  44.235  53.001  0.00  0.00     0.167 HD
ENDBRANCH  21  23
ENDBRANCH   9  21
TORSDOF 6
ENDMDL
MODEL 3
REMARK VINA RESULT:      -6.0     16.225     18.395
REMARK  6 active torsions:
REMARK  status: ('A' for Active; 'I' for Inactive)
REMARK    1  A    between atoms: C_2  and  O_3 
REMARK    2  A    between atoms: C_2  and  C_5 
REMARK    3  A    between atoms: C_6  and  C_7 
REMARK    4  A    between atoms: C_8  and  C_9 
REMARK    5  A    between atoms: C_17  and  C_18 
REMARK    6  A    between atoms: C_18  and  O_20 
ROOT
HETATM    1  C   UNK N   1      28.717  55.297  41.201  0.00  0.00     0.020 C 
HETATM    2  C   UNK N   1      28.132  54.181  40.282  0.00  0.00     0.005 C 
HETATM    3  C   UNK N   1      26.721  53.782  40.838  0.00  0.00     0.014 C 
HETATM    4  C   UNK N   1      25.851  54.962  41.203  0.00  0.00    -0.025 C 
HETATM    5  C   UNK N   1      26.325  56.206  41.343  0.00  0.00    -0.025 C 
HETATM    6  C   UNK N   1      27.783  56.558  41.188  0.00  0.00     0.012 C 
HETATM    7  C   UNK N   1      27.911  57.445  39.931  0.00  0.00     0.015 C 
HETATM    8  C   UNK N   1      25.992  52.897  39.805  0.00  0.00     0.024 C 
HETATM    9  C   UNK N   1      26.762  51.591  39.540  0.00  0.00     0.084 C 
HETATM   10  C   UNK N   1      28.210  51.917  39.123  0.00  0.00     0.020 C 
HETATM   11  C   UNK N   1      28.954  52.845  40.120  0.00  0.00    -0.012 C 
HETATM   12  C   UNK N   1      30.388  53.017  39.590  0.00  0.00     0.010 C 
ENDROOT
BRANCH   1  13
HETATM   13  C   UNK N   1      30.117  55.746  40.820  0.00  0.00    -0.021 C 
HETATM   14  C   UNK N   1      31.187  55.744  41.638  0.00  0.00    -0.003 C 
BRANCH  14  15
HETATM   15  C   UNK N   1      31.172  55.285  43.049  0.00  0.00     0.006 C 
HETATM   16  C   UNK N   1      31.446  54.000  43.333  0.00  0.00     0.081 C 
BRANCH  16  17
HETATM   17  C   UNK N   1      31.448  53.475  44.719  0.00  0.00     0.165 C 
HETATM   18  O   UNK N   1      31.837  52.344  44.956  0.00  0.00    -0.647 OA
BRANCH  17  19
HETATM   19  O   UNK N   1      31.016  54.255  45.734  0.00  0.00    -0.773 OA
HETATM   20  H   UNK N   1      30.874  55.204  45.616  0.00  0.00     0.167 HD
ENDBRANCH  17  19
ENDBRANCH  16  17
ENDBRANCH  14  15
ENDBRANCH   1  13
BRANCH   9  21
HETATM   21  C   UNK N   1      26.655  50.638  40.717  0.00  0.00     0.143 C 
HETATM   22  O   UNK N   1      25.861  50.840  41.625  0.00  0.00    -0.650 OA
BRANCH  21  23
HETATM   23  O   UNK N   1      27.495  49.583  40.785  0.00  0.00    -0.776 OA
HETATM   24  H   UNK N   1      27.803  49.235  41.634  0.00  0.00     0.167 HD
ENDBRANCH  21  23
ENDBRANCH   9  21
TORSDOF 6
ENDMDL
MODEL 4
REMARK VINA RESULT:      -5.3     16.587     18.457
REMARK  6 active torsions:
REMARK  status: ('A' for Active; 'I' for Inactive)
REMARK    1  A    between atoms: C_2  and  O_3 
REMARK    2  A    between atoms: C_2  and  C_5 
REMARK    3  A    between atoms: C_6  and  C_7 
REMARK    4  A    between atoms: C_8  and  C_9 
REMARK    5  A    between atoms: C_17  and  C_18 
REMARK    6  A    between atoms: C_18  and  O_20 
ROOT
HETATM    1  C   UNK N   1      28.097  54.180  39.451  0.00  0.00     0.020 C 
HETATM    2  C   UNK N   1      28.928  55.021  40.469  0.00  0.00     0.005 C 
HETATM    3  C   UNK N   1      30.360  54.389  40.569  0.00  0.00     0.014 C 
HETATM    4  C   UNK N   1      30.971  54.045  39.230  0.00  0.00    -0.025 C 
HETATM    5  C   UNK N   1      30.264  53.984  38.096  0.00  0.00    -0.025 C 
HETATM    6  C   UNK N   1      28.774  54.215  38.036  0.00  0.00     0.012 C 
HETATM    7  C   UNK N   1      28.543  55.516  37.240  0.00  0.00     0.015 C 
HETATM    8  C   UNK N   1      31.293  55.348  41.336  0.00  0.00     0.024 C 
HETATM    9  C   UNK N   1      30.799  55.581  42.776  0.00  0.00     0.084 C 
HETATM   10  C   UNK N   1      29.338  56.072  42.750  0.00  0.00     0.020 C 
HETATM   11  C   UNK N   1      28.383  55.152  41.943  0.00  0.00    -0.012 C 
HETATM   12  C   UNK N   1      26.971  55.747  42.070  0.00  0.00     0.010 C 
ENDROOT
BRANCH   1  13
HETATM   13  C   UNK N   1      26.658  54.638  39.294  0.00  0.00    -0.021 C 
HETATM   14  C   UNK N   1      25.577  53.834  39.302  0.00  0.00    -0.003 C 
BRANCH  14  15
HETATM   15  C   UNK N   1      25.620  52.362  39.482  0.00  0.00     0.006 C 
HETATM   16  C   UNK N   1      25.995  51.848  40.666  0.00  0.00     0.081 C 
BRANCH  16  17
HETATM   17  C   UNK N   1      26.060  50.388  40.914  0.00  0.00     0.165 C 
HETATM   18  O   UNK N   1      25.091  49.785  41.341  0.00  0.00    -0.647 OA
BRANCH  17  19
HETATM   19  O   UNK N   1      27.204  49.714  40.664  0.00  0.00    -0.773 OA
HETATM   20  H   UNK N   1      27.198  48.768  40.459  0.00  0.00     0.167 HD
ENDBRANCH  17  19
ENDBRANCH  16  17
ENDBRANCH  14  15
ENDBRANCH   1  13
BRANCH   9  21
HETATM   21  C   UNK N   1      31.027  54.357  43.643  0.00  0.00     0.143 C 
HETATM   22  O   UNK N   1      31.496  53.329  43.177  0.00  0.00    -0.650 OA
BRANCH  21  23
HETATM   23  O   UNK N   1      30.649  54.392  44.940  0.00  0.00    -0.776 OA
HETATM   24  H   UNK N   1      30.655  53.597  45.491  0.00  0.00     0.167 HD
ENDBRANCH  21  23
ENDBRANCH   9  21
TORSDOF 6
ENDMDL
MODEL 5
REMARK VINA RESULT:      -5.1     13.674     15.830
REMARK  6 active torsions:
REMARK  status: ('A' for Active; 'I' for Inactive)
REMARK    1  A    between atoms: C_2  and  O_3 
REMARK    2  A    between atoms: C_2  and  C_5 
REMARK    3  A    between atoms: C_6  and  C_7 
REMARK    4  A    between atoms: C_8  and  C_9 
REMARK    5  A    between atoms: C_17  and  C_18 
REMARK    6  A    between atoms: C_18  and  O_20 
ROOT
HETATM    1  C   UNK N   1      30.106  45.883  60.044  0.00  0.00     0.020 C 
HETATM    2  C   UNK N   1      30.666  44.433  60.171  0.00  0.00     0.005 C 
HETATM    3  C   UNK N   1      31.947  44.483  61.073  0.00  0.00     0.014 C 
HETATM    4  C   UNK N   1      31.785  45.318  62.321  0.00  0.00    -0.025 C 
HETATM    5  C   UNK N   1      30.779  46.182  62.499  0.00  0.00    -0.025 C 
HETATM    6  C   UNK N   1      29.719  46.443  61.457  0.00  0.00     0.012 C 
HETATM    7  C   UNK N   1      28.383  45.915  62.019  0.00  0.00     0.015 C 
HETATM    8  C   UNK N   1      32.362  43.046  61.458  0.00  0.00     0.024 C 
HETATM    9  C   UNK N   1      32.715  42.211  60.215  0.00  0.00     0.084 C 
HETATM   10  C   UNK N   1      31.538  42.240  59.218  0.00  0.00     0.020 C 
HETATM   11  C   UNK N   1      31.067  43.672  58.850  0.00  0.00    -0.012 C 
HETATM   12  C   UNK N   1      29.942  43.522  57.812  0.00  0.00     0.010 C 
ENDROOT
BRANCH   1  13
HETATM   13  C   UNK N   1      28.891  46.004  59.141  0.00  0.00    -0.021 C 
HETATM   14  C   UNK N   1      28.768  46.858  58.107  0.00  0.00    -0.003 C 
BRANCH  14  15
HETATM   15  C   UNK N   1      29.815  47.814  57.671  0.00  0.00     0.006 C 
HETATM   16  C   UNK N   1      29.468  48.902  56.962  0.00  0.00     0.081 C 
BRANCH  16  17
HETATM   17  C   UNK N   1      30.462  49.897  56.494  0.00  0.00     0.165 C 
HETATM   18  O   UNK N   1      31.387  49.562  55.775  0.00  0.00    -0.647 OA
BRANCH  17  19
HETATM   19  O   UNK N   1      30.345  51.191  56.866  0.00  0.00    -0.773 OA
HETATM   20  H   UNK N   1      31.101  51.687  57.210  0.00  0.00     0.167 HD
ENDBRANCH  17  19
ENDBRANCH  16  17
ENDBRANCH  14  15
ENDBRANCH   1  13
BRANCH   9  21
HETATM   21  C   UNK N   1      34.043  42.640  59.619  0.00  0.00     0.143 C 
HETATM   22  O   UNK N   1      34.293  42.461  58.436  0.00  0.00    -0.650 OA
BRANCH  21  23
HETATM   23  O   UNK N   1      34.983  43.176  60.428  0.00  0.00    -0.776 OA
HETATM   24  H   UNK N   1      34.900  44.076  60.773  0.00  0.00     0.167 HD
ENDBRANCH  21  23
ENDBRANCH   9  21
TORSDOF 6
ENDMDL
MODEL 6
REMARK VINA RESULT:      -5.1     13.468     15.845
REMARK  6 active torsions:
REMARK  status: ('A' for Active; 'I' for Inactive)
REMARK    1  A    between atoms: C_2  and  O_3 
REMARK    2  A    between atoms: C_2  and  C_5 
REMARK    3  A    between atoms: C_6  and  C_7 
REMARK    4  A    between atoms: C_8  and  C_9 
REMARK    5  A    between atoms: C_17  and  C_18 
REMARK    6  A    between atoms: C_18  and  O_20 
ROOT
HETATM    1  C   UNK N   1      29.817  40.652  57.769  0.00  0.00     0.020 C 
HETATM    2  C   UNK N   1      29.279  39.574  56.778  0.00  0.00     0.005 C 
HETATM    3  C   UNK N   1      29.680  38.162  57.329  0.00  0.00     0.014 C 
HETATM    4  C   UNK N   1      29.429  37.988  58.809  0.00  0.00    -0.025 C 
HETATM    5  C   UNK N   1      29.188  39.012  59.636  0.00  0.00    -0.025 C 
HETATM    6  C   UNK N   1      29.178  40.453  59.188  0.00  0.00     0.012 C 
HETATM    7  C   UNK N   1      27.730  40.967  59.324  0.00  0.00     0.015 C 
HETATM    8  C   UNK N   1      28.928  37.069  56.541  0.00  0.00     0.024 C 
HETATM    9  C   UNK N   1      29.300  37.096  55.047  0.00  0.00     0.084 C 
HETATM   10  C   UNK N   1      29.059  38.508  54.477  0.00  0.00     0.020 C 
HETATM   11  C   UNK N   1      29.765  39.634  55.279  0.00  0.00    -0.012 C 
HETATM   12  C   UNK N   1      29.475  40.956  54.548  0.00  0.00     0.010 C 
ENDROOT
BRANCH   1  13
HETATM   13  C   UNK N   1      29.556  42.083  57.333  0.00  0.00    -0.021 C 
HETATM   14  C   UNK N   1      30.474  43.067  57.296  0.00  0.00    -0.003 C 
BRANCH  14  15
HETATM   15  C   UNK N   1      31.903  42.905  57.663  0.00  0.00     0.006 C 
HETATM   16  C   UNK N   1      32.277  43.034  58.948  0.00  0.00     0.081 C 
BRANCH  16  17
HETATM   17  C   UNK N   1      33.686  42.886  59.384  0.00  0.00     0.165 C 
HETATM   18  O   UNK N   1      33.996  43.042  60.553  0.00  0.00    -0.647 OA
BRANCH  17  19
HETATM   19  O   UNK N   1      34.641  42.574  58.480  0.00  0.00    -0.773 OA
HETATM   20  H   UNK N   1      34.623  41.737  57.996  0.00  0.00     0.167 HD
ENDBRANCH  17  19
ENDBRANCH  16  17
ENDBRANCH  14  15
ENDBRANCH   1  13
BRANCH   9  21
HETATM   21  C   UNK N   1      30.704  36.565  54.818  0.00  0.00     0.143 C 
HETATM   22  O   UNK N   1      31.458  37.096  54.016  0.00  0.00    -0.650 OA
BRANCH  21  23
HETATM   23  O   UNK N   1      31.099  35.451  55.472  0.00  0.00    -0.776 OA
HETATM   24  H   UNK N   1      32.027  35.301  55.700  0.00  0.00     0.167 HD
ENDBRANCH  21  23
ENDBRANCH   9  21
TORSDOF 6
ENDMDL
MODEL 7
REMARK VINA RESULT:      -5.1     13.790     16.019
REMARK  6 active torsions:
REMARK  status: ('A' for Active; 'I' for Inactive)
REMARK    1  A    between atoms: C_2  and  O_3 
REMARK    2  A    between atoms: C_2  and  C_5 
REMARK    3  A    between atoms: C_6  and  C_7 
REMARK    4  A    between atoms: C_8  and  C_9 
REMARK    5  A    between atoms: C_17  and  C_18 
REMARK    6  A    between atoms: C_18  and  O_20 
ROOT
HETATM    1  C   UNK N   1      32.509  43.809  60.753  0.00  0.00     0.020 C 
HETATM    2  C   UNK N   1      31.160  44.295  60.139  0.00  0.00     0.005 C 
HETATM    3  C   UNK N   1      31.397  44.596  58.618  0.00  0.00     0.014 C 
HETATM    4  C   UNK N   1      32.188  43.528  57.899  0.00  0.00    -0.025 C 
HETATM    5  C   UNK N   1      32.886  42.581  58.535  0.00  0.00    -0.025 C 
HETATM    6  C   UNK N   1      32.992  42.499  60.038  0.00  0.00     0.012 C 
HETATM    7  C   UNK N   1      32.261  41.214  60.480  0.00  0.00     0.015 C 
HETATM    8  C   UNK N   1      30.038  44.800  57.916  0.00  0.00     0.024 C 
HETATM    9  C   UNK N   1      29.276  46.002  58.504  0.00  0.00     0.084 C 
HETATM   10  C   UNK N   1      29.134  45.832  60.030  0.00  0.00     0.020 C 
HETATM   11  C   UNK N   1      30.481  45.577  60.758  0.00  0.00    -0.012 C 
HETATM   12  C   UNK N   1      30.170  45.493  62.262  0.00  0.00     0.010 C 
ENDROOT
BRANCH   1  13
HETATM   13  C   UNK N   1      32.451  43.536  62.245  0.00  0.00    -0.021 C 
HETATM   14  C   UNK N   1      33.308  44.023  63.162  0.00  0.00    -0.003 C 
BRANCH  14  15
HETATM   15  C   UNK N   1      34.447  44.925  62.860  0.00  0.00     0.006 C 
HETATM   16  C   UNK N   1      35.661  44.404  62.614  0.00  0.00     0.081 C 
BRANCH  16  17
HETATM   17  C   UNK N   1      36.841  45.246  62.306  0.00  0.00     0.165 C 
HETATM   18  O   UNK N   1      36.713  46.435  62.071  0.00  0.00    -0.647 OA
BRANCH  17  19
HETATM   19  O   UNK N   1      38.074  44.695  62.285  0.00  0.00    -0.773 OA
HETATM   20  H   UNK N   1      38.307  43.957  62.867  0.00  0.00     0.167 HD
ENDBRANCH  17  19
ENDBRANCH  16  17
ENDBRANCH  14  15
ENDBRANCH   1  13
BRANCH   9  21
HETATM   21  C   UNK N   1      29.909  47.316  58.082  0.00  0.00     0.143 C 
HETATM   22  O   UNK N   1      29.885  48.294  58.816  0.00  0.00    -0.650 OA
BRANCH  21  23
HETATM   23  O   UNK N   1      30.453  47.417  56.850  0.00  0.00    -0.776 OA
HETATM   24  H   UNK N   1      31.411  47.460  56.722  0.00  0.00     0.167 HD
ENDBRANCH  21  23
ENDBRANCH   9  21
TORSDOF 6
ENDMDL
MODEL 8
REMARK VINA RESULT:      -5.1     13.650     16.232
REMARK  6 active torsions:
REMARK  status: ('A' for Active; 'I' for Inactive)
REMARK    1  A    between atoms: C_2  and  O_3 
REMARK    2  A    between atoms: C_2  and  C_5 
REMARK    3  A    between atoms: C_6  and  C_7 
REMARK    4  A    between atoms: C_8  and  C_9 
REMARK    5  A    between atoms: C_17  and  C_18 
REMARK    6  A    between atoms: C_18  and  O_20 
ROOT
HETATM    1  C   UNK N   1      33.612  46.024  63.517  0.00  0.00     0.020 C 
HETATM    2  C   UNK N   1      34.982  46.338  64.193  0.00  0.00     0.005 C 
HETATM    3  C   UNK N   1      35.510  47.697  63.615  0.00  0.00     0.014 C 
HETATM    4  C   UNK N   1      34.461  48.782  63.547  0.00  0.00    -0.025 C 
HETATM    5  C   UNK N   1      33.150  48.541  63.664  0.00  0.00    -0.025 C 
HETATM    6  C   UNK N   1      32.575  47.157  63.838  0.00  0.00     0.012 C 
HETATM    7  C   UNK N   1      31.960  47.089  65.251  0.00  0.00     0.015 C 
HETATM    8  C   UNK N   1      36.708  48.184  64.458  0.00  0.00     0.024 C 
HETATM    9  C   UNK N   1      37.877  47.183  64.404  0.00  0.00     0.084 C 
HETATM   10  C   UNK N   1      37.384  45.785  64.828  0.00  0.00     0.020 C 
HETATM   11  C   UNK N   1      36.148  45.289  64.030  0.00  0.00    -0.012 C 
HETATM   12  C   UNK N   1      35.829  43.870  64.531  0.00  0.00     0.010 C 
ENDROOT
BRANCH   1  13
HETATM   13  C   UNK N   1      33.002  44.697  63.934  0.00  0.00    -0.021 C 
HETATM   14  C   UNK N   1      32.652  43.702  63.097  0.00  0.00    -0.003 C 
BRANCH  14  15
HETATM   15  C   UNK N   1      32.822  43.736  61.624  0.00  0.00     0.006 C 
HETATM   16  C   UNK N   1      33.815  43.033  61.052  0.00  0.00     0.081 C 
BRANCH  16  17
HETATM   17  C   UNK N   1      34.042  43.023  59.588  0.00  0.00     0.165 C 
HETATM   18  O   UNK N   1      33.190  42.593  58.829  0.00  0.00    -0.647 OA
BRANCH  17  19
HETATM   19  O   UNK N   1      35.203  43.495  59.084  0.00  0.00    -0.773 OA
HETATM   20  H   UNK N   1      35.567  44.346  59.367  0.00  0.00     0.167 HD
ENDBRANCH  17  19
ENDBRANCH  16  17
ENDBRANCH  14  15
ENDBRANCH   1  13
BRANCH   9  21
HETATM   21  C   UNK N   1      38.568  47.213  63.053  0.00  0.00     0.143 C 
HETATM   22  O   UNK N   1      38.780  48.269  62.474  0.00  0.00    -0.650 OA
BRANCH  21  23
HETATM   23  O   UNK N   1      38.900  46.046  62.460  0.00  0.00    -0.776 OA
HETATM   24  H   UNK N   1      38.236  45.493  62.024  0.00  0.00     0.167 HD
ENDBRANCH  21  23
ENDBRANCH   9  21
TORSDOF 6
ENDMDL
MODEL 9
REMARK VINA RESULT:      -4.9      3.333      6.391
REMARK  6 active torsions:
REMARK  status: ('A' for Active; 'I' for Inactive)
REMARK    1  A    between atoms: C_2  and  O_3 
REMARK    2  A    between atoms: C_2  and  C_5 
REMARK    3  A    between atoms: C_6  and  C_7 
REMARK    4  A    between atoms: C_8  and  C_9 
REMARK    5  A    between atoms: C_17  and  C_18 
REMARK    6  A    between atoms: C_18  and  O_20 
ROOT
HETATM    1  C   UNK N   1      40.414  45.729  49.120  0.00  0.00     0.020 C 
HETATM    2  C   UNK N   1      40.440  46.338  47.685  0.00  0.00     0.005 C 
HETATM    3  C   UNK N   1      41.106  47.755  47.769  0.00  0.00     0.014 C 
HETATM    4  C   UNK N   1      42.365  47.792  48.603  0.00  0.00    -0.025 C 
HETATM    5  C   UNK N   1      42.716  46.811  49.442  0.00  0.00    -0.025 C 
HETATM    6  C   UNK N   1      41.875  45.580  49.674  0.00  0.00     0.012 C 
HETATM    7  C   UNK N   1      42.659  44.375  49.114  0.00  0.00     0.015 C 
HETATM    8  C   UNK N   1      41.410  48.266  46.344  0.00  0.00     0.024 C 
HETATM    9  C   UNK N   1      40.123  48.418  45.514  0.00  0.00     0.084 C 
HETATM   10  C   UNK N   1      39.346  47.085  45.512  0.00  0.00     0.020 C 
HETATM   11  C   UNK N   1      39.068  46.522  46.931  0.00  0.00    -0.012 C 
HETATM   12  C   UNK N   1      38.241  45.237  46.750  0.00  0.00     0.010 C 
ENDROOT
BRANCH   1  13
HETATM   13  C   UNK N   1      39.738  44.372  49.209  0.00  0.00    -0.021 C 
HETATM   14  C   UNK N   1      39.631  43.625  50.324  0.00  0.00    -0.003 C 
BRANCH  14  15
HETATM   15  C   UNK N   1      40.148  44.017  51.658  0.00  0.00     0.006 C 
HETATM   16  C   UNK N   1      41.236  43.404  52.155  0.00  0.00     0.081 C 
BRANCH  16  17
HETATM   17  C   UNK N   1      41.805  43.746  53.481  0.00  0.00     0.165 C 
HETATM   18  O   UNK N   1      42.289  42.883  54.192  0.00  0.00    -0.647 OA
BRANCH  17  19
HETATM   19  O   UNK N   1      41.789  45.027  53.909  0.00  0.00    -0.773 OA
HETATM   20  H   UNK N   1      41.013  45.592  53.785  0.00  0.00     0.167 HD
ENDBRANCH  17  19
ENDBRANCH  16  17
ENDBRANCH  14  15
ENDBRANCH   1  13
BRANCH   9  21
HETATM   21  C   UNK N   1      39.305  49.611  45.975  0.00  0.00     0.143 C 
HETATM   22  O   UNK N   1      38.921  49.706  47.131  0.00  0.00    -0.650 OA
BRANCH  21  23
HETATM   23  O   UNK N   1      38.951  50.551  45.072  0.00  0.00    -0.776 OA
HETATM   24  H   UNK N   1      39.207  51.478  45.180  0.00  0.00     0.167 HD
ENDBRANCH  21  23
ENDBRANCH   9  21
TORSDOF 6
ENDMDL
