MODEL 1
REMARK VINA RESULT:      -7.9      0.000      0.000
REMARK  7 active torsions:
REMARK  status: ('A' for Active; 'I' for Inactive)
REMARK    1  A    between atoms: C_2  and  O_3 
REMARK    2  A    between atoms: C_2  and  C_5 
REMARK    3  A    between atoms: C_6  and  C_7 
REMARK    4  A    between atoms: C_8  and  C_9 
REMARK    5  A    between atoms: C_14  and  C_15 
REMARK    6  A    between atoms: C_15  and  O_16 
REMARK    7  A    between atoms: C_19  and  O_20 
ROOT
HETATM    1  C   UNK N   1      41.460  46.395  47.718  0.00  0.00    -0.021 A 
HETATM    2  C   UNK N   1      41.154  45.718  48.946  0.00  0.00    -0.037 A 
HETATM    3  C   UNK N   1      41.936  46.030  50.099  0.00  0.00    -0.048 A 
HETATM    4  C   UNK N   1      42.914  47.026  50.040  0.00  0.00     0.008 A 
HETATM    5  C   UNK N   1      43.173  47.699  48.860  0.00  0.00     0.011 A 
HETATM    6  C   UNK N   1      42.467  47.397  47.695  0.00  0.00    -0.024 A 
HETATM    7  C   UNK N   1      41.777  45.295  51.410  0.00  0.00     0.076 C 
HETATM    8  C   UNK N   1      41.087  43.923  51.261  0.00  0.00     0.059 C 
HETATM    9  C   UNK N   1      39.791  44.141  50.487  0.00  0.00     0.046 C 
HETATM   10  C   UNK N   1      40.031  44.652  49.040  0.00  0.00     0.019 C 
HETATM   11  C   UNK N   1      38.650  45.152  48.558  0.00  0.00     0.015 C 
HETATM   12  C   UNK N   1      40.783  43.367  52.662  0.00  0.00     0.046 C 
ENDROOT
BRANCH   1  13
HETATM   13  C   UNK N   1      40.742  46.081  46.458  0.00  0.00     0.012 C 
HETATM   14  C   UNK N   1      39.771  46.851  45.926  0.00  0.00     0.001 C 
BRANCH  14  15
HETATM   15  C   UNK N   1      39.306  48.125  46.546  0.00  0.00     0.007 C 
HETATM   16  C   UNK N   1      39.249  49.331  45.928  0.00  0.00     0.081 C 
BRANCH  16  17
HETATM   17  C   UNK N   1      39.635  49.649  44.523  0.00  0.00     0.165 C 
HETATM   18  O   UNK N   1      40.729  50.103  44.241  0.00  0.00    -0.647 OA
BRANCH  17  19
HETATM   19  O   UNK N   1      38.737  49.424  43.538  0.00  0.00    -0.773 OA
HETATM   20  H   UNK N   1      37.913  48.946  43.712  0.00  0.00     0.167 HD
ENDBRANCH  17  19
ENDBRANCH  16  17
ENDBRANCH  14  15
ENDBRANCH   1  13
BRANCH   6  21
HETATM   21  C   UNK N   1      42.818  48.175  46.438  0.00  0.00     0.203 C 
BRANCH  21  22
HETATM   22  O   UNK N   1      44.004  48.905  46.615  0.00  0.00    -0.396 OA
HETATM   23  H   UNK N   1      43.763  49.868  46.618  0.00  0.00     0.209 HD
ENDBRANCH  21  22
ENDBRANCH   6  21
BRANCH   8  24
HETATM   24  O   UNK N   1      41.908  42.983  50.601  0.00  0.00    -0.390 OA
HETATM   25  H   UNK N   1      41.415  42.129  50.493  0.00  0.00     0.210 HD
ENDBRANCH   8  24
TORSDOF 7
ENDMDL
MODEL 2
REMARK VINA RESULT:      -7.9      2.618      3.777
REMARK  7 active torsions:
REMARK  status: ('A' for Active; 'I' for Inactive)
REMARK    1  A    between atoms: C_2  and  O_3 
REMARK    2  A    between atoms: C_2  and  C_5 
REMARK    3  A    between atoms: C_6  and  C_7 
REMARK    4  A    between atoms: C_8  and  C_9 
REMARK    5  A    between atoms: C_14  and  C_15 
REMARK    6  A    between atoms: C_15  and  O_16 
REMARK    7  A    between atoms: C_19  and  O_20 
ROOT
HETATM    1  C   UNK N   1      41.367  45.884  47.652  0.00  0.00    -0.021 A 
HETATM    2  C   UNK N   1      41.093  45.394  48.972  0.00  0.00    -0.037 A 
HETATM    3  C   UNK N   1      41.801  45.976  50.067  0.00  0.00    -0.048 A 
HETATM    4  C   UNK N   1      42.672  47.048  49.854  0.00  0.00     0.008 A 
HETATM    5  C   UNK N   1      42.897  47.538  48.580  0.00  0.00     0.011 A 
HETATM    6  C   UNK N   1      42.264  46.971  47.473  0.00  0.00    -0.024 A 
HETATM    7  C   UNK N   1      41.678  45.459  51.482  0.00  0.00     0.076 C 
HETATM    8  C   UNK N   1      41.138  44.015  51.557  0.00  0.00     0.059 C 
HETATM    9  C   UNK N   1      39.853  43.959  50.740  0.00  0.00     0.046 C 
HETATM   10  C   UNK N   1      40.085  44.244  49.230  0.00  0.00     0.019 C 
HETATM   11  C   UNK N   1      38.676  44.504  48.651  0.00  0.00     0.015 C 
HETATM   12  C   UNK N   1      40.849  43.672  53.028  0.00  0.00     0.046 C 
ENDROOT
BRANCH   1  13
HETATM   13  C   UNK N   1      40.726  45.289  46.453  0.00  0.00     0.012 C 
HETATM   14  C   UNK N   1      40.983  44.048  45.993  0.00  0.00     0.001 C 
BRANCH  14  15
HETATM   15  C   UNK N   1      41.948  43.118  46.645  0.00  0.00     0.007 C 
HETATM   16  C   UNK N   1      43.006  42.523  46.039  0.00  0.00     0.081 C 
BRANCH  16  17
HETATM   17  C   UNK N   1      43.431  42.660  44.616  0.00  0.00     0.165 C 
HETATM   18  O   UNK N   1      42.970  43.516  43.884  0.00  0.00    -0.647 OA
BRANCH  17  19
HETATM   19  O   UNK N   1      44.359  41.804  44.133  0.00  0.00    -0.773 OA
HETATM   20  H   UNK N   1      44.391  41.581  43.191  0.00  0.00     0.167 HD
ENDBRANCH  17  19
ENDBRANCH  16  17
ENDBRANCH  14  15
ENDBRANCH   1  13
BRANCH   6  21
HETATM   21  C   UNK N   1      42.573  47.561  46.108  0.00  0.00     0.203 C 
BRANCH  21  22
HETATM   22  O   UNK N   1      41.595  48.495  45.731  0.00  0.00    -0.396 OA
HETATM   23  H   UNK N   1      40.770  48.283  46.240  0.00  0.00     0.209 HD
ENDBRANCH  21  22
ENDBRANCH   6  21
BRANCH   8  24
HETATM   24  O   UNK N   1      42.073  43.071  51.079  0.00  0.00    -0.390 OA
HETATM   25  H   UNK N   1      42.476  42.585  51.844  0.00  0.00     0.210 HD
ENDBRANCH   8  24
TORSDOF 7
ENDMDL
MODEL 3
REMARK VINA RESULT:      -7.2      2.005      3.921
REMARK  7 active torsions:
REMARK  status: ('A' for Active; 'I' for Inactive)
REMARK    1  A    between atoms: C_2  and  O_3 
REMARK    2  A    between atoms: C_2  and  C_5 
REMARK    3  A    between atoms: C_6  and  C_7 
REMARK    4  A    between atoms: C_8  and  C_9 
REMARK    5  A    between atoms: C_14  and  C_15 
REMARK    6  A    between atoms: C_15  and  O_16 
REMARK    7  A    between atoms: C_19  and  O_20 
ROOT
HETATM    1  C   UNK N   1      41.117  45.854  47.431  0.00  0.00    -0.021 A 
HETATM    2  C   UNK N   1      41.051  45.438  48.802  0.00  0.00    -0.037 A 
HETATM    3  C   UNK N   1      41.860  46.128  49.755  0.00  0.00    -0.048 A 
HETATM    4  C   UNK N   1      42.627  47.228  49.363  0.00  0.00     0.008 A 
HETATM    5  C   UNK N   1      42.651  47.645  48.045  0.00  0.00     0.011 A 
HETATM    6  C   UNK N   1      41.913  46.973  47.069  0.00  0.00    -0.024 A 
HETATM    7  C   UNK N   1      41.957  45.699  51.201  0.00  0.00     0.076 C 
HETATM    8  C   UNK N   1      41.523  44.236  51.433  0.00  0.00     0.059 C 
HETATM    9  C   UNK N   1      40.147  44.058  50.802  0.00  0.00     0.046 C 
HETATM   10  C   UNK N   1      40.159  44.255  49.261  0.00  0.00     0.019 C 
HETATM   11  C   UNK N   1      38.672  44.400  48.865  0.00  0.00     0.015 C 
HETATM   12  C   UNK N   1      41.453  43.976  52.947  0.00  0.00     0.046 C 
ENDROOT
BRANCH   1  13
HETATM   13  C   UNK N   1      40.361  45.147  46.367  0.00  0.00     0.012 C 
HETATM   14  C   UNK N   1      40.933  44.443  45.370  0.00  0.00     0.001 C 
BRANCH  14  15
HETATM   15  C   UNK N   1      42.408  44.285  45.222  0.00  0.00     0.007 C 
HETATM   16  C   UNK N   1      43.152  43.281  45.749  0.00  0.00     0.081 C 
BRANCH  16  17
HETATM   17  C   UNK N   1      42.676  42.137  46.580  0.00  0.00     0.165 C 
HETATM   18  O   UNK N   1      42.615  41.003  46.142  0.00  0.00    -0.647 OA
BRANCH  17  19
HETATM   19  O   UNK N   1      42.304  42.376  47.857  0.00  0.00    -0.773 OA
HETATM   20  H   UNK N   1      41.409  42.679  48.070  0.00  0.00     0.167 HD
ENDBRANCH  17  19
ENDBRANCH  16  17
ENDBRANCH  14  15
ENDBRANCH   1  13
BRANCH   6  21
HETATM   21  C   UNK N   1      42.002  47.487  45.643  0.00  0.00     0.203 C 
BRANCH  21  22
HETATM   22  O   UNK N   1      42.647  48.733  45.597  0.00  0.00    -0.396 OA
HETATM   23  H   UNK N   1      41.943  49.432  45.584  0.00  0.00     0.209 HD
ENDBRANCH  21  22
ENDBRANCH   6  21
BRANCH   8  24
HETATM   24  O   UNK N   1      42.443  43.315  50.888  0.00  0.00    -0.390 OA
HETATM   25  H   UNK N   1      42.444  43.391  49.899  0.00  0.00     0.210 HD
ENDBRANCH   8  24
TORSDOF 7
ENDMDL
MODEL 4
REMARK VINA RESULT:      -7.1      2.434      6.190
REMARK  7 active torsions:
REMARK  status: ('A' for Active; 'I' for Inactive)
REMARK    1  A    between atoms: C_2  and  O_3 
REMARK    2  A    between atoms: C_2  and  C_5 
REMARK    3  A    between atoms: C_6  and  C_7 
REMARK    4  A    between atoms: C_8  and  C_9 
REMARK    5  A    between atoms: C_14  and  C_15 
REMARK    6  A    between atoms: C_15  and  O_16 
REMARK    7  A    between atoms: C_19  and  O_20 
ROOT
HETATM    1  C   UNK N   1      41.392  43.654  47.288  0.00  0.00    -0.021 A 
HETATM    2  C   UNK N   1      40.734  44.904  47.036  0.00  0.00    -0.037 A 
HETATM    3  C   UNK N   1      41.012  45.576  45.807  0.00  0.00    -0.048 A 
HETATM    4  C   UNK N   1      41.839  44.983  44.850  0.00  0.00     0.008 A 
HETATM    5  C   UNK N   1      42.436  43.758  45.088  0.00  0.00     0.011 A 
HETATM    6  C   UNK N   1      42.232  43.084  46.293  0.00  0.00    -0.024 A 
HETATM    7  C   UNK N   1      40.467  46.949  45.491  0.00  0.00     0.076 C 
HETATM    8  C   UNK N   1      40.020  47.731  46.745  0.00  0.00     0.059 C 
HETATM    9  C   UNK N   1      39.075  46.832  47.535  0.00  0.00     0.046 C 
HETATM   10  C   UNK N   1      39.768  45.546  48.065  0.00  0.00     0.019 C 
HETATM   11  C   UNK N   1      38.610  44.620  48.501  0.00  0.00     0.015 C 
HETATM   12  C   UNK N   1      39.289  49.008  46.297  0.00  0.00     0.046 C 
ENDROOT
BRANCH   1  13
HETATM   13  C   UNK N   1      41.212  42.925  48.567  0.00  0.00     0.012 C 
HETATM   14  C   UNK N   1      41.589  43.400  49.771  0.00  0.00     0.001 C 
BRANCH  14  15
HETATM   15  C   UNK N   1      42.231  44.733  49.959  0.00  0.00     0.007 C 
HETATM   16  C   UNK N   1      42.254  45.443  51.115  0.00  0.00     0.081 C 
BRANCH  16  17
HETATM   17  C   UNK N   1      41.653  45.063  52.426  0.00  0.00     0.165 C 
HETATM   18  O   UNK N   1      42.187  45.339  53.485  0.00  0.00    -0.647 OA
BRANCH  17  19
HETATM   19  O   UNK N   1      40.478  44.395  52.430  0.00  0.00    -0.773 OA
HETATM   20  H   UNK N   1      39.633  44.868  52.460  0.00  0.00     0.167 HD
ENDBRANCH  17  19
ENDBRANCH  16  17
ENDBRANCH  14  15
ENDBRANCH   1  13
BRANCH   6  21
HETATM   21  C   UNK N   1      42.932  41.750  46.481  0.00  0.00     0.203 C 
BRANCH  21  22
HETATM   22  O   UNK N   1      44.328  41.907  46.455  0.00  0.00    -0.396 OA
HETATM   23  H   UNK N   1      44.707  41.307  47.148  0.00  0.00     0.209 HD
ENDBRANCH  21  22
ENDBRANCH   6  21
BRANCH   8  24
HETATM   24  O   UNK N   1      41.114  48.128  47.543  0.00  0.00    -0.390 OA
HETATM   25  H   UNK N   1      41.376  49.055  47.311  0.00  0.00     0.210 HD
ENDBRANCH   8  24
TORSDOF 7
ENDMDL
MODEL 5
REMARK VINA RESULT:      -6.8      1.932      2.896
REMARK  7 active torsions:
REMARK  status: ('A' for Active; 'I' for Inactive)
REMARK    1  A    between atoms: C_2  and  O_3 
REMARK    2  A    between atoms: C_2  and  C_5 
REMARK    3  A    between atoms: C_6  and  C_7 
REMARK    4  A    between atoms: C_8  and  C_9 
REMARK    5  A    between atoms: C_14  and  C_15 
REMARK    6  A    between atoms: C_15  and  O_16 
REMARK    7  A    between atoms: C_19  and  O_20 
ROOT
HETATM    1  C   UNK N   1      41.910  45.640  47.474  0.00  0.00    -0.021 A 
HETATM    2  C   UNK N   1      41.828  45.108  48.804  0.00  0.00    -0.037 A 
HETATM    3  C   UNK N   1      41.633  43.702  48.956  0.00  0.00    -0.048 A 
HETATM    4  C   UNK N   1      41.606  42.868  47.835  0.00  0.00     0.008 A 
HETATM    5  C   UNK N   1      41.727  43.388  46.560  0.00  0.00     0.011 A 
HETATM    6  C   UNK N   1      41.872  44.762  46.357  0.00  0.00    -0.024 A 
HETATM    7  C   UNK N   1      41.417  43.053  50.304  0.00  0.00     0.076 C 
HETATM    8  C   UNK N   1      40.952  44.046  51.391  0.00  0.00     0.059 C 
HETATM    9  C   UNK N   1      41.928  45.218  51.392  0.00  0.00     0.046 C 
HETATM   10  C   UNK N   1      41.915  46.016  50.059  0.00  0.00     0.019 C 
HETATM   11  C   UNK N   1      43.183  46.898  50.109  0.00  0.00     0.015 C 
HETATM   12  C   UNK N   1      40.974  43.334  52.753  0.00  0.00     0.046 C 
ENDROOT
BRANCH   1  13
HETATM   13  C   UNK N   1      42.043  47.097  47.226  0.00  0.00     0.012 C 
HETATM   14  C   UNK N   1      41.033  47.894  46.824  0.00  0.00     0.001 C 
BRANCH  14  15
HETATM   15  C   UNK N   1      39.647  47.400  46.585  0.00  0.00     0.007 C 
HETATM   16  C   UNK N   1      38.799  47.855  45.629  0.00  0.00     0.081 C 
BRANCH  16  17
HETATM   17  C   UNK N   1      39.054  48.930  44.627  0.00  0.00     0.165 C 
HETATM   18  O   UNK N   1      39.355  48.680  43.474  0.00  0.00    -0.647 OA
BRANCH  17  19
HETATM   19  O   UNK N   1      38.944  50.219  45.018  0.00  0.00    -0.773 OA
HETATM   20  H   UNK N   1      39.725  50.733  45.274  0.00  0.00     0.167 HD
ENDBRANCH  17  19
ENDBRANCH  16  17
ENDBRANCH  14  15
ENDBRANCH   1  13
BRANCH   6  21
HETATM   21  C   UNK N   1      41.986  45.254  44.926  0.00  0.00     0.203 C 
BRANCH  21  22
HETATM   22  O   UNK N   1      41.616  44.248  44.018  0.00  0.00    -0.396 OA
HETATM   23  H   UNK N   1      41.857  44.564  43.109  0.00  0.00     0.209 HD
ENDBRANCH  21  22
ENDBRANCH   6  21
BRANCH   8  24
HETATM   24  O   UNK N   1      39.633  44.497  51.171  0.00  0.00    -0.390 OA
HETATM   25  H   UNK N   1      39.270  44.884  52.008  0.00  0.00     0.210 HD
ENDBRANCH   8  24
TORSDOF 7
ENDMDL
MODEL 6
REMARK VINA RESULT:      -6.5      2.634      3.788
REMARK  7 active torsions:
REMARK  status: ('A' for Active; 'I' for Inactive)
REMARK    1  A    between atoms: C_2  and  O_3 
REMARK    2  A    between atoms: C_2  and  C_5 
REMARK    3  A    between atoms: C_6  and  C_7 
REMARK    4  A    between atoms: C_8  and  C_9 
REMARK    5  A    between atoms: C_14  and  C_15 
REMARK    6  A    between atoms: C_15  and  O_16 
REMARK    7  A    between atoms: C_19  and  O_20 
ROOT
HETATM    1  C   UNK N   1      41.637  45.330  47.225  0.00  0.00    -0.021 A 
HETATM    2  C   UNK N   1      41.686  44.918  48.598  0.00  0.00    -0.037 A 
HETATM    3  C   UNK N   1      41.831  43.526  48.880  0.00  0.00    -0.048 A 
HETATM    4  C   UNK N   1      42.001  42.610  47.838  0.00  0.00     0.008 A 
HETATM    5  C   UNK N   1      41.992  43.024  46.519  0.00  0.00     0.011 A 
HETATM    6  C   UNK N   1      41.807  44.368  46.192  0.00  0.00    -0.024 A 
HETATM    7  C   UNK N   1      41.777  42.971  50.284  0.00  0.00     0.076 C 
HETATM    8  C   UNK N   1      41.092  43.921  51.289  0.00  0.00     0.059 C 
HETATM    9  C   UNK N   1      41.762  45.285  51.164  0.00  0.00     0.046 C 
HETATM   10  C   UNK N   1      41.557  45.932  49.765  0.00  0.00     0.019 C 
HETATM   11  C   UNK N   1      42.580  47.089  49.707  0.00  0.00     0.015 C 
HETATM   12  C   UNK N   1      41.285  43.363  52.708  0.00  0.00     0.046 C 
ENDROOT
BRANCH   1  13
HETATM   13  C   UNK N   1      41.420  46.748  46.845  0.00  0.00     0.012 C 
HETATM   14  C   UNK N   1      40.324  47.204  46.207  0.00  0.00     0.001 C 
BRANCH  14  15
HETATM   15  C   UNK N   1      39.185  46.327  45.810  0.00  0.00     0.007 C 
HETATM   16  C   UNK N   1      38.334  45.703  46.662  0.00  0.00     0.081 C 
BRANCH  16  17
HETATM   17  C   UNK N   1      38.346  45.748  48.153  0.00  0.00     0.165 C 
HETATM   18  O   UNK N   1      38.415  46.797  48.766  0.00  0.00    -0.647 OA
BRANCH  17  19
HETATM   19  O   UNK N   1      38.275  44.584  48.836  0.00  0.00    -0.773 OA
HETATM   20  H   UNK N   1      37.783  44.521  49.668  0.00  0.00     0.167 HD
ENDBRANCH  17  19
ENDBRANCH  16  17
ENDBRANCH  14  15
ENDBRANCH   1  13
BRANCH   6  21
HETATM   21  C   UNK N   1      41.799  44.740  44.720  0.00  0.00     0.203 C 
BRANCH  21  22
HETATM   22  O   UNK N   1      41.146  43.758  43.957  0.00  0.00    -0.396 OA
HETATM   23  H   UNK N   1      41.693  43.599  43.145  0.00  0.00     0.209 HD
ENDBRANCH  21  22
ENDBRANCH   6  21
BRANCH   8  24
HETATM   24  O   UNK N   1      39.703  44.026  51.061  0.00  0.00    -0.390 OA
HETATM   25  H   UNK N   1      39.266  44.438  51.850  0.00  0.00     0.210 HD
ENDBRANCH   8  24
TORSDOF 7
ENDMDL
MODEL 7
REMARK VINA RESULT:      -6.2      1.901      4.812
REMARK  7 active torsions:
REMARK  status: ('A' for Active; 'I' for Inactive)
REMARK    1  A    between atoms: C_2  and  O_3 
REMARK    2  A    between atoms: C_2  and  C_5 
REMARK    3  A    between atoms: C_6  and  C_7 
REMARK    4  A    between atoms: C_8  and  C_9 
REMARK    5  A    between atoms: C_14  and  C_15 
REMARK    6  A    between atoms: C_15  and  O_16 
REMARK    7  A    between atoms: C_19  and  O_20 
ROOT
HETATM    1  C   UNK N   1      40.972  44.594  49.713  0.00  0.00    -0.021 A 
HETATM    2  C   UNK N   1      41.754  45.517  48.943  0.00  0.00    -0.037 A 
HETATM    3  C   UNK N   1      42.598  46.432  49.642  0.00  0.00    -0.048 A 
HETATM    4  C   UNK N   1      42.711  46.364  51.033  0.00  0.00     0.008 A 
HETATM    5  C   UNK N   1      41.982  45.443  51.762  0.00  0.00     0.011 A 
HETATM    6  C   UNK N   1      41.108  44.559  51.127  0.00  0.00    -0.024 A 
HETATM    7  C   UNK N   1      43.375  47.521  48.939  0.00  0.00     0.076 C 
HETATM    8  C   UNK N   1      42.820  47.858  47.539  0.00  0.00     0.059 C 
HETATM    9  C   UNK N   1      42.703  46.551  46.763  0.00  0.00     0.046 C 
HETATM   10  C   UNK N   1      41.683  45.564  47.394  0.00  0.00     0.019 C 
HETATM   11  C   UNK N   1      41.966  44.206  46.712  0.00  0.00     0.015 C 
HETATM   12  C   UNK N   1      43.801  48.809  46.834  0.00  0.00     0.046 C 
ENDROOT
BRANCH   1  13
HETATM   13  C   UNK N   1      40.019  43.656  49.069  0.00  0.00     0.012 C 
HETATM   14  C   UNK N   1      38.802  44.008  48.608  0.00  0.00     0.001 C 
BRANCH  14  15
HETATM   15  C   UNK N   1      38.268  45.398  48.688  0.00  0.00     0.007 C 
HETATM   16  C   UNK N   1      38.281  46.309  47.682  0.00  0.00     0.081 C 
BRANCH  16  17
HETATM   17  C   UNK N   1      38.823  46.131  46.304  0.00  0.00     0.165 C 
HETATM   18  O   UNK N   1      38.801  45.055  45.735  0.00  0.00    -0.647 OA
BRANCH  17  19
HETATM   19  O   UNK N   1      39.350  47.204  45.672  0.00  0.00    -0.773 OA
HETATM   20  H   UNK N   1      39.940  47.096  44.912  0.00  0.00     0.167 HD
ENDBRANCH  17  19
ENDBRANCH  16  17
ENDBRANCH  14  15
ENDBRANCH   1  13
BRANCH   6  21
HETATM   21  C   UNK N   1      40.335  43.585  51.999  0.00  0.00     0.203 C 
BRANCH  21  22
HETATM   22  O   UNK N   1      41.149  43.073  53.023  0.00  0.00    -0.396 OA
HETATM   23  H   UNK N   1      42.041  42.887  52.630  0.00  0.00     0.209 HD
ENDBRANCH  21  22
ENDBRANCH   6  21
BRANCH   8  24
HETATM   24  O   UNK N   1      41.570  48.512  47.604  0.00  0.00    -0.390 OA
HETATM   25  H   UNK N   1      41.471  48.952  48.487  0.00  0.00     0.210 HD
ENDBRANCH   8  24
TORSDOF 7
ENDMDL
MODEL 8
REMARK VINA RESULT:      -6.2     11.078     14.086
REMARK  7 active torsions:
REMARK  status: ('A' for Active; 'I' for Inactive)
REMARK    1  A    between atoms: C_2  and  O_3 
REMARK    2  A    between atoms: C_2  and  C_5 
REMARK    3  A    between atoms: C_6  and  C_7 
REMARK    4  A    between atoms: C_8  and  C_9 
REMARK    5  A    between atoms: C_14  and  C_15 
REMARK    6  A    between atoms: C_15  and  O_16 
REMARK    7  A    between atoms: C_19  and  O_20 
ROOT
HETATM    1  C   UNK N   1      31.674  52.258  42.985  0.00  0.00    -0.021 A 
HETATM    2  C   UNK N   1      31.082  53.402  42.352  0.00  0.00    -0.037 A 
HETATM    3  C   UNK N   1      30.701  53.290  40.980  0.00  0.00    -0.048 A 
HETATM    4  C   UNK N   1      30.832  52.072  40.309  0.00  0.00     0.008 A 
HETATM    5  C   UNK N   1      31.368  50.965  40.942  0.00  0.00     0.011 A 
HETATM    6  C   UNK N   1      31.797  51.038  42.268  0.00  0.00    -0.024 A 
HETATM    7  C   UNK N   1      30.178  54.463  40.184  0.00  0.00     0.076 C 
HETATM    8  C   UNK N   1      30.540  55.830  40.804  0.00  0.00     0.059 C 
HETATM    9  C   UNK N   1      30.108  55.802  42.266  0.00  0.00     0.046 C 
HETATM   10  C   UNK N   1      30.877  54.743  43.103  0.00  0.00     0.019 C 
HETATM   11  C   UNK N   1      30.072  54.611  44.415  0.00  0.00     0.015 C 
HETATM   12  C   UNK N   1      29.783  56.932  40.045  0.00  0.00     0.046 C 
ENDROOT
BRANCH   1  13
HETATM   13  C   UNK N   1      32.159  52.310  44.386  0.00  0.00     0.012 C 
HETATM   14  C   UNK N   1      33.207  53.051  44.800  0.00  0.00     0.001 C 
BRANCH  14  15
HETATM   15  C   UNK N   1      34.005  53.919  43.887  0.00  0.00     0.007 C 
HETATM   16  C   UNK N   1      34.294  55.229  44.094  0.00  0.00     0.081 C 
BRANCH  16  17
HETATM   17  C   UNK N   1      33.885  56.077  45.250  0.00  0.00     0.165 C 
HETATM   18  O   UNK N   1      33.046  55.713  46.053  0.00  0.00    -0.647 OA
BRANCH  17  19
HETATM   19  O   UNK N   1      34.471  57.285  45.405  0.00  0.00    -0.773 OA
HETATM   20  H   UNK N   1      34.021  58.002  45.877  0.00  0.00     0.167 HD
ENDBRANCH  17  19
ENDBRANCH  16  17
ENDBRANCH  14  15
ENDBRANCH   1  13
BRANCH   6  21
HETATM   21  C   UNK N   1      32.384  49.781  42.888  0.00  0.00     0.203 C 
BRANCH  21  22
HETATM   22  O   UNK N   1      32.012  48.641  42.157  0.00  0.00    -0.396 OA
HETATM   23  H   UNK N   1      32.008  48.891  41.197  0.00  0.00     0.209 HD
ENDBRANCH  21  22
ENDBRANCH   6  21
BRANCH   8  24
HETATM   24  O   UNK N   1      31.919  56.114  40.698  0.00  0.00    -0.390 OA
HETATM   25  H   UNK N   1      32.282  55.698  39.874  0.00  0.00     0.210 HD
ENDBRANCH   8  24
TORSDOF 7
ENDMDL
MODEL 9
REMARK VINA RESULT:      -6.2     10.602     13.180
REMARK  7 active torsions:
REMARK  status: ('A' for Active; 'I' for Inactive)
REMARK    1  A    between atoms: C_2  and  O_3 
REMARK    2  A    between atoms: C_2  and  C_5 
REMARK    3  A    between atoms: C_6  and  C_7 
REMARK    4  A    between atoms: C_8  and  C_9 
REMARK    5  A    between atoms: C_14  and  C_15 
REMARK    6  A    between atoms: C_15  and  O_16 
REMARK    7  A    between atoms: C_19  and  O_20 
ROOT
HETATM    1  C   UNK N   1      31.293  53.172  43.294  0.00  0.00    -0.021 A 
HETATM    2  C   UNK N   1      31.421  51.920  42.604  0.00  0.00    -0.037 A 
HETATM    3  C   UNK N   1      31.039  51.867  41.229  0.00  0.00    -0.048 A 
HETATM    4  C   UNK N   1      30.632  53.027  40.565  0.00  0.00     0.008 A 
HETATM    5  C   UNK N   1      30.551  54.237  41.231  0.00  0.00     0.011 A 
HETATM    6  C   UNK N   1      30.869  54.329  42.587  0.00  0.00    -0.024 A 
HETATM    7  C   UNK N   1      31.022  50.579  40.440  0.00  0.00     0.076 C 
HETATM    8  C   UNK N   1      30.975  49.319  41.331  0.00  0.00     0.059 C 
HETATM    9  C   UNK N   1      32.103  49.432  42.350  0.00  0.00     0.046 C 
HETATM   10  C   UNK N   1      31.927  50.638  43.314  0.00  0.00     0.019 C 
HETATM   11  C   UNK N   1      33.301  50.803  44.002  0.00  0.00     0.015 C 
HETATM   12  C   UNK N   1      31.180  48.079  40.445  0.00  0.00     0.046 C 
ENDROOT
BRANCH   1  13
HETATM   13  C   UNK N   1      31.604  53.298  44.740  0.00  0.00     0.012 C 
HETATM   14  C   UNK N   1      32.727  53.859  45.229  0.00  0.00     0.001 C 
BRANCH  14  15
HETATM   15  C   UNK N   1      33.799  54.431  44.363  0.00  0.00     0.007 C 
HETATM   16  C   UNK N   1      34.486  55.575  44.608  0.00  0.00     0.081 C 
BRANCH  16  17
HETATM   17  C   UNK N   1      34.327  56.499  45.767  0.00  0.00     0.165 C 
HETATM   18  O   UNK N   1      34.514  56.135  46.914  0.00  0.00    -0.647 OA
BRANCH  17  19
HETATM   19  O   UNK N   1      33.965  57.779  45.529  0.00  0.00    -0.773 OA
HETATM   20  H   UNK N   1      33.424  58.273  46.164  0.00  0.00     0.167 HD
ENDBRANCH  17  19
ENDBRANCH  16  17
ENDBRANCH  14  15
ENDBRANCH   1  13
BRANCH   6  21
HETATM   21  C   UNK N   1      30.745  55.691  43.247  0.00  0.00     0.203 C 
BRANCH  21  22
HETATM   22  O   UNK N   1      30.052  56.589  42.419  0.00  0.00    -0.396 OA
HETATM   23  H   UNK N   1      29.090  56.528  42.654  0.00  0.00     0.209 HD
ENDBRANCH  21  22
ENDBRANCH   6  21
BRANCH   8  24
HETATM   24  O   UNK N   1      29.730  49.173  41.981  0.00  0.00    -0.390 OA
HETATM   25  H   UNK N   1      29.731  49.699  42.822  0.00  0.00     0.210 HD
ENDBRANCH   8  24
TORSDOF 7
ENDMDL
