MODEL 1
REMARK VINA RESULT:      -7.9      0.000      0.000
REMARK  5 active torsions:
REMARK  status: ('A' for Active; 'I' for Inactive)
REMARK    1  A    between atoms: C_4  and  O_5 
REMARK    2  A    between atoms: C_8  and  O_9 
REMARK    3  A    between atoms: C_13  and  O_14 
REMARK    4  A    between atoms: C_19  and  O_20 
REMARK    5  A    between atoms: C_22  and  O_23 
ROOT
HETATM    1  O   UNK N   1      43.102  46.677  50.354  0.00  0.00    -0.292 OA
HETATM    2  C   UNK N   1      42.215  46.014  49.839  0.00  0.00     0.167 C 
HETATM    3  C   UNK N   1      41.584  46.438  48.550  0.00  0.00     0.052 A 
HETATM    4  C   UNK N   1      42.133  47.447  47.696  0.00  0.00     0.082 A 
HETATM    5  C   UNK N   1      41.483  47.771  46.502  0.00  0.00     0.074 A 
HETATM    6  C   UNK N   1      40.314  47.123  46.113  0.00  0.00     0.071 A 
HETATM    7  C   UNK N   1      39.768  46.136  46.944  0.00  0.00     0.047 A 
HETATM    8  C   UNK N   1      40.373  45.801  48.161  0.00  0.00    -0.010 A 
HETATM    9  C   UNK N   1      39.695  44.754  49.038  0.00  0.00     0.157 C 
HETATM   10  C   UNK N   1      40.177  44.776  50.508  0.00  0.00     0.033 C 
HETATM   11  C   UNK N   1      41.712  44.771  50.548  0.00  0.00     0.070 C 
HETATM   12  C   UNK N   1      42.226  44.714  52.003  0.00  0.00     0.048 C 
HETATM   13  C   UNK N   1      41.637  43.518  52.767  0.00  0.00     0.152 C 
HETATM   14  C   UNK N   1      40.082  43.545  52.749  0.00  0.00     0.080 C 
HETATM   15  C   UNK N   1      39.603  43.565  51.277  0.00  0.00     0.048 C 
HETATM   16  C   UNK N   1      39.535  42.294  53.463  0.00  0.00     0.048 C 
ENDROOT
BRANCH  14  17
HETATM   17  O   UNK N   1      39.631  44.702  53.418  0.00  0.00    -0.388 OA
HETATM   18  H   UNK N   1      38.650  44.776  53.279  0.00  0.00     0.210 HD
ENDBRANCH  14  17
BRANCH  13  19
HETATM   19  O   UNK N   1      42.137  43.490  54.082  0.00  0.00    -0.393 OA
HETATM   20  H   UNK N   1      43.097  43.745  54.049  0.00  0.00     0.210 HD
ENDBRANCH  13  19
BRANCH   9  21
HETATM   21  O   UNK N   1      38.294  44.896  49.006  0.00  0.00    -0.390 OA
HETATM   22  H   UNK N   1      38.007  44.853  48.056  0.00  0.00     0.210 HD
ENDBRANCH   9  21
BRANCH   4  23
HETATM   23  O   UNK N   1      43.278  48.120  47.967  0.00  0.00    -0.360 OA
HETATM   24  H   UNK N   1      43.612  48.889  47.499  0.00  0.00     0.217 HD
ENDBRANCH   4  23
BRANCH   6  25
HETATM   25  O   UNK N   1      39.731  47.478  44.936  0.00  0.00    -0.356 OA
HETATM   26  C   UNK N   1      39.337  48.761  44.613  0.00  0.00     0.210 C 
ENDBRANCH   6  25
TORSDOF 5
ENDMDL
MODEL 2
REMARK VINA RESULT:      -7.2      1.281      3.122
REMARK  5 active torsions:
REMARK  status: ('A' for Active; 'I' for Inactive)
REMARK    1  A    between atoms: C_4  and  O_5 
REMARK    2  A    between atoms: C_8  and  O_9 
REMARK    3  A    between atoms: C_13  and  O_14 
REMARK    4  A    between atoms: C_19  and  O_20 
REMARK    5  A    between atoms: C_22  and  O_23 
ROOT
HETATM    1  O   UNK N   1      39.026  43.951  48.428  0.00  0.00    -0.292 OA
HETATM    2  C   UNK N   1      39.782  44.798  48.878  0.00  0.00     0.167 C 
HETATM    3  C   UNK N   1      40.488  45.761  47.975  0.00  0.00     0.052 A 
HETATM    4  C   UNK N   1      40.137  45.958  46.602  0.00  0.00     0.082 A 
HETATM    5  C   UNK N   1      40.843  46.890  45.835  0.00  0.00     0.074 A 
HETATM    6  C   UNK N   1      41.878  47.644  46.380  0.00  0.00     0.071 A 
HETATM    7  C   UNK N   1      42.230  47.455  47.723  0.00  0.00     0.047 A 
HETATM    8  C   UNK N   1      41.566  46.514  48.518  0.00  0.00    -0.010 A 
HETATM    9  C   UNK N   1      42.037  46.325  49.956  0.00  0.00     0.157 C 
HETATM   10  C   UNK N   1      41.557  44.998  50.593  0.00  0.00     0.033 C 
HETATM   11  C   UNK N   1      40.047  44.837  50.371  0.00  0.00     0.070 C 
HETATM   12  C   UNK N   1      39.521  43.560  51.062  0.00  0.00     0.048 C 
HETATM   13  C   UNK N   1      39.878  43.535  52.557  0.00  0.00     0.152 C 
HETATM   14  C   UNK N   1      41.413  43.669  52.774  0.00  0.00     0.080 C 
HETATM   15  C   UNK N   1      41.898  44.976  52.101  0.00  0.00     0.048 C 
HETATM   16  C   UNK N   1      41.719  43.711  54.284  0.00  0.00     0.048 C 
ENDROOT
BRANCH  14  17
HETATM   17  O   UNK N   1      42.062  42.559  52.194  0.00  0.00    -0.388 OA
HETATM   18  H   UNK N   1      42.837  42.321  52.767  0.00  0.00     0.210 HD
ENDBRANCH  14  17
BRANCH  13  19
HETATM   19  O   UNK N   1      39.372  42.367  53.156  0.00  0.00    -0.393 OA
HETATM   20  H   UNK N   1      39.852  41.590  52.763  0.00  0.00     0.210 HD
ENDBRANCH  13  19
BRANCH   9  21
HETATM   21  O   UNK N   1      43.441  46.401  50.044  0.00  0.00    -0.390 OA
HETATM   22  H   UNK N   1      43.767  45.552  50.442  0.00  0.00     0.210 HD
ENDBRANCH   9  21
BRANCH   4  23
HETATM   23  O   UNK N   1      39.130  45.297  45.980  0.00  0.00    -0.360 OA
HETATM   24  H   UNK N   1      39.223  44.620  45.306  0.00  0.00     0.217 HD
ENDBRANCH   4  23
BRANCH   6  25
HETATM   25  O   UNK N   1      42.523  48.539  45.585  0.00  0.00    -0.356 OA
HETATM   26  C   UNK N   1      43.631  49.269  45.965  0.00  0.00     0.210 C 
ENDBRANCH   6  25
TORSDOF 5
ENDMDL
MODEL 3
REMARK VINA RESULT:      -6.2      2.215      4.581
REMARK  5 active torsions:
REMARK  status: ('A' for Active; 'I' for Inactive)
REMARK    1  A    between atoms: C_4  and  O_5 
REMARK    2  A    between atoms: C_8  and  O_9 
REMARK    3  A    between atoms: C_13  and  O_14 
REMARK    4  A    between atoms: C_19  and  O_20 
REMARK    5  A    between atoms: C_22  and  O_23 
ROOT
HETATM    1  O   UNK N   1      38.054  45.825  46.039  0.00  0.00    -0.292 OA
HETATM    2  C   UNK N   1      38.869  46.631  46.459  0.00  0.00     0.167 C 
HETATM    3  C   UNK N   1      39.284  47.810  45.637  0.00  0.00     0.052 A 
HETATM    4  C   UNK N   1      38.584  48.241  44.465  0.00  0.00     0.082 A 
HETATM    5  C   UNK N   1      39.035  49.363  43.764  0.00  0.00     0.074 A 
HETATM    6  C   UNK N   1      40.149  50.084  44.186  0.00  0.00     0.071 A 
HETATM    7  C   UNK N   1      40.841  49.668  45.331  0.00  0.00     0.047 A 
HETATM    8  C   UNK N   1      40.438  48.534  46.046  0.00  0.00    -0.010 A 
HETATM    9  C   UNK N   1      41.270  48.110  47.252  0.00  0.00     0.157 C 
HETATM   10  C   UNK N   1      41.018  46.648  47.691  0.00  0.00     0.033 C 
HETATM   11  C   UNK N   1      39.508  46.400  47.816  0.00  0.00     0.070 C 
HETATM   12  C   UNK N   1      39.224  44.971  48.328  0.00  0.00     0.048 C 
HETATM   13  C   UNK N   1      39.954  44.686  49.650  0.00  0.00     0.152 C 
HETATM   14  C   UNK N   1      41.488  44.909  49.508  0.00  0.00     0.080 C 
HETATM   15  C   UNK N   1      41.736  46.360  49.029  0.00  0.00     0.048 C 
HETATM   16  C   UNK N   1      42.171  44.682  50.871  0.00  0.00     0.048 C 
ENDROOT
BRANCH  14  17
HETATM   17  O   UNK N   1      42.004  43.996  48.566  0.00  0.00    -0.388 OA
HETATM   18  H   UNK N   1      42.985  43.929  48.707  0.00  0.00     0.210 HD
ENDBRANCH  14  17
BRANCH  13  19
HETATM   19  O   UNK N   1      39.662  43.383  50.093  0.00  0.00    -0.393 OA
HETATM   20  H   UNK N   1      40.507  42.976  50.423  0.00  0.00     0.210 HD
ENDBRANCH  13  19
BRANCH   9  21
HETATM   21  O   UNK N   1      42.646  48.291  47.007  0.00  0.00    -0.390 OA
HETATM   22  H   UNK N   1      43.077  48.536  47.869  0.00  0.00     0.210 HD
ENDBRANCH   9  21
BRANCH   4  23
HETATM   23  O   UNK N   1      37.476  47.628  43.983  0.00  0.00    -0.360 OA
HETATM   24  H   UNK N   1      36.587  47.693  44.339  0.00  0.00     0.217 HD
ENDBRANCH   4  23
BRANCH   6  25
HETATM   25  O   UNK N   1      40.535  51.171  43.465  0.00  0.00    -0.356 OA
HETATM   26  C   UNK N   1      39.788  51.749  42.458  0.00  0.00     0.210 C 
ENDBRANCH   6  25
TORSDOF 5
ENDMDL
MODEL 4
REMARK VINA RESULT:      -6.2      2.701      5.514
REMARK  5 active torsions:
REMARK  status: ('A' for Active; 'I' for Inactive)
REMARK    1  A    between atoms: C_4  and  O_5 
REMARK    2  A    between atoms: C_8  and  O_9 
REMARK    3  A    between atoms: C_13  and  O_14 
REMARK    4  A    between atoms: C_19  and  O_20 
REMARK    5  A    between atoms: C_22  and  O_23 
ROOT
HETATM    1  O   UNK N   1      37.867  46.416  45.344  0.00  0.00    -0.292 OA
HETATM    2  C   UNK N   1      38.695  47.261  45.646  0.00  0.00     0.167 C 
HETATM    3  C   UNK N   1      39.005  48.402  44.729  0.00  0.00     0.052 A 
HETATM    4  C   UNK N   1      38.194  48.752  43.603  0.00  0.00     0.082 A 
HETATM    5  C   UNK N   1      38.552  49.843  42.806  0.00  0.00     0.074 A 
HETATM    6  C   UNK N   1      39.679  50.610  43.087  0.00  0.00     0.071 A 
HETATM    7  C   UNK N   1      40.481  50.272  44.186  0.00  0.00     0.047 A 
HETATM    8  C   UNK N   1      40.172  49.171  44.994  0.00  0.00    -0.010 A 
HETATM    9  C   UNK N   1      41.118  48.831  46.140  0.00  0.00     0.157 C 
HETATM   10  C   UNK N   1      40.944  47.391  46.677  0.00  0.00     0.033 C 
HETATM   11  C   UNK N   1      39.458  47.119  46.950  0.00  0.00     0.070 C 
HETATM   12  C   UNK N   1      39.256  45.715  47.561  0.00  0.00     0.048 C 
HETATM   13  C   UNK N   1      40.108  45.518  48.825  0.00  0.00     0.152 C 
HETATM   14  C   UNK N   1      41.617  45.766  48.535  0.00  0.00     0.080 C 
HETATM   15  C   UNK N   1      41.784  47.193  47.959  0.00  0.00     0.048 C 
HETATM   16  C   UNK N   1      42.424  45.629  49.841  0.00  0.00     0.048 C 
ENDROOT
BRANCH  14  17
HETATM   17  O   UNK N   1      42.072  44.813  47.600  0.00  0.00    -0.388 OA
HETATM   18  H   UNK N   1      41.999  43.914  48.016  0.00  0.00     0.210 HD
ENDBRANCH  14  17
BRANCH  13  19
HETATM   19  O   UNK N   1      39.891  44.236  49.362  0.00  0.00    -0.393 OA
HETATM   20  H   UNK N   1      39.558  43.651  48.630  0.00  0.00     0.210 HD
ENDBRANCH  13  19
BRANCH   9  21
HETATM   21  O   UNK N   1      42.461  49.029  45.765  0.00  0.00    -0.390 OA
HETATM   22  H   UNK N   1      42.819  49.783  46.303  0.00  0.00     0.210 HD
ENDBRANCH   9  21
BRANCH   4  23
HETATM   23  O   UNK N   1      37.063  48.090  43.255  0.00  0.00    -0.360 OA
HETATM   24  H   UNK N   1      36.857  47.728  42.390  0.00  0.00     0.217 HD
ENDBRANCH   4  23
BRANCH   6  25
HETATM   25  O   UNK N   1      39.971  51.663  42.278  0.00  0.00    -0.356 OA
HETATM   26  C   UNK N   1      40.003  52.981  42.688  0.00  0.00     0.210 C 
ENDBRANCH   6  25
TORSDOF 5
ENDMDL
MODEL 5
REMARK VINA RESULT:      -6.1      1.722      7.423
REMARK  5 active torsions:
REMARK  status: ('A' for Active; 'I' for Inactive)
REMARK    1  A    between atoms: C_4  and  O_5 
REMARK    2  A    between atoms: C_8  and  O_9 
REMARK    3  A    between atoms: C_13  and  O_14 
REMARK    4  A    between atoms: C_19  and  O_20 
REMARK    5  A    between atoms: C_22  and  O_23 
ROOT
HETATM    1  O   UNK N   1      37.823  45.776  46.761  0.00  0.00    -0.292 OA
HETATM    2  C   UNK N   1      38.977  46.148  46.903  0.00  0.00     0.167 C 
HETATM    3  C   UNK N   1      39.787  45.717  48.086  0.00  0.00     0.052 A 
HETATM    4  C   UNK N   1      39.403  44.652  48.960  0.00  0.00     0.082 A 
HETATM    5  C   UNK N   1      40.228  44.307  50.035  0.00  0.00     0.074 A 
HETATM    6  C   UNK N   1      41.428  44.972  50.271  0.00  0.00     0.071 A 
HETATM    7  C   UNK N   1      41.811  46.018  49.421  0.00  0.00     0.047 A 
HETATM    8  C   UNK N   1      41.001  46.412  48.350  0.00  0.00    -0.010 A 
HETATM    9  C   UNK N   1      41.455  47.593  47.498  0.00  0.00     0.157 C 
HETATM   10  C   UNK N   1      40.320  48.214  46.650  0.00  0.00     0.033 C 
HETATM   11  C   UNK N   1      39.577  47.105  45.891  0.00  0.00     0.070 C 
HETATM   12  C   UNK N   1      38.487  47.699  44.973  0.00  0.00     0.048 C 
HETATM   13  C   UNK N   1      39.064  48.752  44.014  0.00  0.00     0.152 C 
HETATM   14  C   UNK N   1      39.788  49.889  44.790  0.00  0.00     0.080 C 
HETATM   15  C   UNK N   1      40.897  49.261  45.670  0.00  0.00     0.048 C 
HETATM   16  C   UNK N   1      40.412  50.882  43.791  0.00  0.00     0.048 C 
ENDROOT
BRANCH  14  17
HETATM   17  O   UNK N   1      38.854  50.564  45.603  0.00  0.00    -0.388 OA
HETATM   18  H   UNK N   1      39.255  51.429  45.880  0.00  0.00     0.210 HD
ENDBRANCH  14  17
BRANCH  13  19
HETATM   19  O   UNK N   1      38.047  49.261  43.185  0.00  0.00    -0.393 OA
HETATM   20  H   UNK N   1      38.454  49.940  42.584  0.00  0.00     0.210 HD
ENDBRANCH  13  19
BRANCH   9  21
HETATM   21  O   UNK N   1      42.042  48.595  48.295  0.00  0.00    -0.390 OA
HETATM   22  H   UNK N   1      43.025  48.554  48.157  0.00  0.00     0.210 HD
ENDBRANCH   9  21
BRANCH   4  23
HETATM   23  O   UNK N   1      38.270  43.924  48.806  0.00  0.00    -0.360 OA
HETATM   24  H   UNK N   1      37.594  44.054  48.137  0.00  0.00     0.217 HD
ENDBRANCH   4  23
BRANCH   6  25
HETATM   25  O   UNK N   1      42.191  44.587  51.329  0.00  0.00    -0.356 OA
HETATM   26  C   UNK N   1      41.882  44.840  52.650  0.00  0.00     0.210 C 
ENDBRANCH   6  25
TORSDOF 5
ENDMDL
MODEL 6
REMARK VINA RESULT:      -6.0     11.854     15.760
REMARK  5 active torsions:
REMARK  status: ('A' for Active; 'I' for Inactive)
REMARK    1  A    between atoms: C_4  and  O_5 
REMARK    2  A    between atoms: C_8  and  O_9 
REMARK    3  A    between atoms: C_13  and  O_14 
REMARK    4  A    between atoms: C_19  and  O_20 
REMARK    5  A    between atoms: C_22  and  O_23 
ROOT
HETATM    1  O   UNK N   1      31.508  50.994  42.267  0.00  0.00    -0.292 OA
HETATM    2  C   UNK N   1      31.437  52.212  42.222  0.00  0.00     0.167 C 
HETATM    3  C   UNK N   1      32.126  53.065  43.240  0.00  0.00     0.052 A 
HETATM    4  C   UNK N   1      33.121  52.569  44.141  0.00  0.00     0.082 A 
HETATM    5  C   UNK N   1      33.724  53.441  45.053  0.00  0.00     0.074 A 
HETATM    6  C   UNK N   1      33.386  54.791  45.099  0.00  0.00     0.071 A 
HETATM    7  C   UNK N   1      32.411  55.284  44.222  0.00  0.00     0.047 A 
HETATM    8  C   UNK N   1      31.765  54.439  43.312  0.00  0.00    -0.010 A 
HETATM    9  C   UNK N   1      30.676  55.034  42.424  0.00  0.00     0.157 C 
HETATM   10  C   UNK N   1      29.745  53.970  41.794  0.00  0.00     0.033 C 
HETATM   11  C   UNK N   1      30.590  52.865  41.145  0.00  0.00     0.070 C 
HETATM   12  C   UNK N   1      29.692  51.826  40.439  0.00  0.00     0.048 C 
HETATM   13  C   UNK N   1      28.750  52.490  39.421  0.00  0.00     0.152 C 
HETATM   14  C   UNK N   1      27.875  53.588  40.091  0.00  0.00     0.080 C 
HETATM   15  C   UNK N   1      28.808  54.629  40.756  0.00  0.00     0.048 C 
HETATM   16  C   UNK N   1      27.000  54.274  39.024  0.00  0.00     0.048 C 
ENDROOT
BRANCH  14  17
HETATM   17  O   UNK N   1      27.047  52.991  41.065  0.00  0.00    -0.388 OA
HETATM   18  H   UNK N   1      26.502  53.706  41.485  0.00  0.00     0.210 HD
ENDBRANCH  14  17
BRANCH  13  19
HETATM   19  O   UNK N   1      27.957  51.514  38.788  0.00  0.00    -0.393 OA
HETATM   20  H   UNK N   1      28.554  50.957  38.221  0.00  0.00     0.210 HD
ENDBRANCH  13  19
BRANCH   9  21
HETATM   21  O   UNK N   1      29.899  55.971  43.134  0.00  0.00    -0.390 OA
HETATM   22  H   UNK N   1      29.096  56.173  42.587  0.00  0.00     0.210 HD
ENDBRANCH   9  21
BRANCH   4  23
HETATM   23  O   UNK N   1      33.542  51.281  44.164  0.00  0.00    -0.360 OA
HETATM   24  H   UNK N   1      32.986  50.499  44.141  0.00  0.00     0.217 HD
ENDBRANCH   4  23
BRANCH   6  25
HETATM   25  O   UNK N   1      34.012  55.590  46.004  0.00  0.00    -0.356 OA
HETATM   26  C   UNK N   1      34.308  56.923  45.800  0.00  0.00     0.210 C 
ENDBRANCH   6  25
TORSDOF 5
ENDMDL
MODEL 7
REMARK VINA RESULT:      -5.6     10.429     15.473
REMARK  5 active torsions:
REMARK  status: ('A' for Active; 'I' for Inactive)
REMARK    1  A    between atoms: C_4  and  O_5 
REMARK    2  A    between atoms: C_8  and  O_9 
REMARK    3  A    between atoms: C_13  and  O_14 
REMARK    4  A    between atoms: C_19  and  O_20 
REMARK    5  A    between atoms: C_22  and  O_23 
ROOT
HETATM    1  O   UNK N   1      32.165  55.059  44.217  0.00  0.00    -0.292 OA
HETATM    2  C   UNK N   1      31.625  54.200  43.538  0.00  0.00     0.167 C 
HETATM    3  C   UNK N   1      32.164  52.804  43.485  0.00  0.00     0.052 A 
HETATM    4  C   UNK N   1      33.136  52.299  44.406  0.00  0.00     0.082 A 
HETATM    5  C   UNK N   1      33.574  50.976  44.291  0.00  0.00     0.074 A 
HETATM    6  C   UNK N   1      33.076  50.129  43.305  0.00  0.00     0.071 A 
HETATM    7  C   UNK N   1      32.126  50.617  42.398  0.00  0.00     0.047 A 
HETATM    8  C   UNK N   1      31.681  51.942  42.462  0.00  0.00    -0.010 A 
HETATM    9  C   UNK N   1      30.685  52.419  41.410  0.00  0.00     0.157 C 
HETATM   10  C   UNK N   1      30.599  53.960  41.296  0.00  0.00     0.033 C 
HETATM   11  C   UNK N   1      30.421  54.571  42.693  0.00  0.00     0.070 C 
HETATM   12  C   UNK N   1      30.253  56.104  42.608  0.00  0.00     0.048 C 
HETATM   13  C   UNK N   1      29.103  56.498  41.668  0.00  0.00     0.152 C 
HETATM   14  C   UNK N   1      29.304  55.901  40.245  0.00  0.00     0.080 C 
HETATM   15  C   UNK N   1      29.432  54.363  40.366  0.00  0.00     0.048 C 
HETATM   16  C   UNK N   1      28.097  56.260  39.358  0.00  0.00     0.048 C 
ENDROOT
BRANCH  14  17
HETATM   17  O   UNK N   1      30.479  56.438  39.679  0.00  0.00    -0.388 OA
HETATM   18  H   UNK N   1      31.249  55.895  39.993  0.00  0.00     0.210 HD
ENDBRANCH  14  17
BRANCH  13  19
HETATM   19  O   UNK N   1      28.971  57.898  41.625  0.00  0.00    -0.393 OA
HETATM   20  H   UNK N   1      28.575  58.140  40.746  0.00  0.00     0.210 HD
ENDBRANCH  13  19
BRANCH   9  21
HETATM   21  O   UNK N   1      30.983  51.875  40.145  0.00  0.00    -0.390 OA
HETATM   22  H   UNK N   1      30.263  51.232  39.915  0.00  0.00     0.210 HD
ENDBRANCH   9  21
BRANCH   4  23
HETATM   23  O   UNK N   1      33.666  53.029  45.417  0.00  0.00    -0.360 OA
HETATM   24  H   UNK N   1      33.850  53.971  45.405  0.00  0.00     0.217 HD
ENDBRANCH   4  23
BRANCH   6  25
HETATM   25  O   UNK N   1      33.537  48.851  43.248  0.00  0.00    -0.356 OA
HETATM   26  C   UNK N   1      34.870  48.501  43.166  0.00  0.00     0.210 C 
ENDBRANCH   6  25
TORSDOF 5
ENDMDL
MODEL 8
REMARK VINA RESULT:      -5.3     11.086     16.242
REMARK  5 active torsions:
REMARK  status: ('A' for Active; 'I' for Inactive)
REMARK    1  A    between atoms: C_4  and  O_5 
REMARK    2  A    between atoms: C_8  and  O_9 
REMARK    3  A    between atoms: C_13  and  O_14 
REMARK    4  A    between atoms: C_19  and  O_20 
REMARK    5  A    between atoms: C_22  and  O_23 
ROOT
HETATM    1  O   UNK N   1      30.761  55.709  43.457  0.00  0.00    -0.292 OA
HETATM    2  C   UNK N   1      30.616  54.642  42.882  0.00  0.00     0.167 C 
HETATM    3  C   UNK N   1      31.465  53.457  43.225  0.00  0.00     0.052 A 
HETATM    4  C   UNK N   1      32.281  53.385  44.398  0.00  0.00     0.082 A 
HETATM    5  C   UNK N   1      33.033  52.232  44.647  0.00  0.00     0.074 A 
HETATM    6  C   UNK N   1      32.998  51.142  43.783  0.00  0.00     0.071 A 
HETATM    7  C   UNK N   1      32.203  51.205  42.631  0.00  0.00     0.047 A 
HETATM    8  C   UNK N   1      31.456  52.351  42.331  0.00  0.00    -0.010 A 
HETATM    9  C   UNK N   1      30.655  52.369  41.034  0.00  0.00     0.157 C 
HETATM   10  C   UNK N   1      30.238  53.791  40.587  0.00  0.00     0.033 C 
HETATM   11  C   UNK N   1      29.594  54.534  41.766  0.00  0.00     0.070 C 
HETATM   12  C   UNK N   1      29.095  55.930  41.333  0.00  0.00     0.048 C 
HETATM   13  C   UNK N   1      28.142  55.844  40.131  0.00  0.00     0.152 C 
HETATM   14  C   UNK N   1      28.811  55.117  38.928  0.00  0.00     0.080 C 
HETATM   15  C   UNK N   1      29.264  53.710  39.389  0.00  0.00     0.048 C 
HETATM   16  C   UNK N   1      27.799  54.990  37.773  0.00  0.00     0.048 C 
ENDROOT
BRANCH  14  17
HETATM   17  O   UNK N   1      29.926  55.865  38.496  0.00  0.00    -0.388 OA
HETATM   18  H   UNK N   1      29.592  56.698  38.072  0.00  0.00     0.210 HD
ENDBRANCH  14  17
BRANCH  13  19
HETATM   19  O   UNK N   1      27.698  57.130  39.772  0.00  0.00    -0.393 OA
HETATM   20  H   UNK N   1      27.044  57.031  39.030  0.00  0.00     0.210 HD
ENDBRANCH  13  19
BRANCH   9  21
HETATM   21  O   UNK N   1      31.365  51.743  39.990  0.00  0.00    -0.390 OA
HETATM   22  H   UNK N   1      31.964  51.064  40.397  0.00  0.00     0.210 HD
ENDBRANCH   9  21
BRANCH   4  23
HETATM   23  O   UNK N   1      32.368  54.377  45.317  0.00  0.00    -0.360 OA
HETATM   24  H   UNK N   1      33.175  54.777  45.651  0.00  0.00     0.217 HD
ENDBRANCH   4  23
BRANCH   6  25
HETATM   25  O   UNK N   1      33.747  50.047  44.082  0.00  0.00    -0.356 OA
HETATM   26  C   UNK N   1      33.726  48.864  43.370  0.00  0.00     0.210 C 
ENDBRANCH   6  25
TORSDOF 5
ENDMDL
MODEL 9
REMARK VINA RESULT:      -5.3     12.545     16.879
REMARK  5 active torsions:
REMARK  status: ('A' for Active; 'I' for Inactive)
REMARK    1  A    between atoms: C_4  and  O_5 
REMARK    2  A    between atoms: C_8  and  O_9 
REMARK    3  A    between atoms: C_13  and  O_14 
REMARK    4  A    between atoms: C_19  and  O_20 
REMARK    5  A    between atoms: C_22  and  O_23 
ROOT
HETATM    1  O   UNK N   1      31.139  55.634  43.723  0.00  0.00    -0.292 OA
HETATM    2  C   UNK N   1      30.644  54.906  42.877  0.00  0.00     0.167 C 
HETATM    3  C   UNK N   1      31.116  53.497  42.699  0.00  0.00     0.052 A 
HETATM    4  C   UNK N   1      31.945  52.816  43.647  0.00  0.00     0.082 A 
HETATM    5  C   UNK N   1      32.329  51.494  43.405  0.00  0.00     0.074 A 
HETATM    6  C   UNK N   1      31.913  50.814  42.264  0.00  0.00     0.071 A 
HETATM    7  C   UNK N   1      31.104  51.474  41.329  0.00  0.00     0.047 A 
HETATM    8  C   UNK N   1      30.720  52.806  41.520  0.00  0.00    -0.010 A 
HETATM    9  C   UNK N   1      29.882  53.477  40.436  0.00  0.00     0.157 C 
HETATM   10  C   UNK N   1      29.886  55.022  40.522  0.00  0.00     0.033 C 
HETATM   11  C   UNK N   1      29.570  55.459  41.959  0.00  0.00     0.070 C 
HETATM   12  C   UNK N   1      29.488  56.997  42.063  0.00  0.00     0.048 C 
HETATM   13  C   UNK N   1      28.481  57.581  41.061  0.00  0.00     0.152 C 
HETATM   14  C   UNK N   1      28.824  57.160  39.603  0.00  0.00     0.080 C 
HETATM   15  C   UNK N   1      28.860  55.614  39.529  0.00  0.00     0.048 C 
HETATM   16  C   UNK N   1      27.751  57.706  38.641  0.00  0.00     0.048 C 
ENDROOT
BRANCH  14  17
HETATM   17  O   UNK N   1      30.083  57.689  39.251  0.00  0.00    -0.388 OA
HETATM   18  H   UNK N   1      29.978  58.195  38.403  0.00  0.00     0.210 HD
ENDBRANCH  14  17
BRANCH  13  19
HETATM   19  O   UNK N   1      28.423  58.981  41.192  0.00  0.00    -0.393 OA
HETATM   20  H   UNK N   1      27.491  59.267  41.000  0.00  0.00     0.210 HD
ENDBRANCH  13  19
BRANCH   9  21
HETATM   21  O   UNK N   1      30.305  53.081  39.152  0.00  0.00    -0.390 OA
HETATM   22  H   UNK N   1      31.011  52.392  39.264  0.00  0.00     0.210 HD
ENDBRANCH   9  21
BRANCH   4  23
HETATM   23  O   UNK N   1      32.383  53.375  44.801  0.00  0.00    -0.360 OA
HETATM   24  H   UNK N   1      33.297  53.544  45.042  0.00  0.00     0.217 HD
ENDBRANCH   4  23
BRANCH   6  25
HETATM   25  O   UNK N   1      32.315  49.527  42.088  0.00  0.00    -0.356 OA
HETATM   26  C   UNK N   1      31.515  48.517  41.593  0.00  0.00     0.210 C 
ENDBRANCH   6  25
TORSDOF 5
ENDMDL
