MODEL 1
REMARK VINA RESULT:      -6.6      0.000      0.000
REMARK  9 active torsions:
REMARK  status: ('A' for Active; 'I' for Inactive)
REMARK    1  A    between atoms: C_2  and  O_3 
REMARK    2  A    between atoms: O_3  and  C_4 
REMARK    3  A    between atoms: C_5  and  C_13 
REMARK    4  A    between atoms: C_7  and  O_8 
REMARK    5  A    between atoms: C_16  and  O_17 
REMARK    6  A    between atoms: C_19  and  O_20 
REMARK    7  A    between atoms: C_22  and  O_23 
REMARK    8  A    between atoms: C_25  and  C_26 
REMARK    9  A    between atoms: C_26  and  O_27 
ROOT
HETATM    1  O   UNK N   1      40.260  43.627  50.932  0.00  0.00    -0.348 OA
HETATM    2  C   UNK N   1      41.383  44.059  50.178  0.00  0.00     0.298 C 
HETATM    3  C   UNK N   1      41.954  45.359  50.790  0.00  0.00     0.205 C 
HETATM    4  C   UNK N   1      42.355  45.102  52.246  0.00  0.00     0.183 C 
HETATM    5  C   UNK N   1      41.175  44.487  53.025  0.00  0.00     0.180 C 
HETATM    6  C   UNK N   1      40.663  43.251  52.246  0.00  0.00     0.179 C 
ENDROOT
BRANCH   2   7
HETATM    7  O   UNK N   1      40.980  44.318  48.869  0.00  0.00    -0.317 OA
BRANCH   7   8
HETATM    8  C   UNK N   1      41.481  43.731  47.740  0.00  0.00     0.079 A 
HETATM    9  C   UNK N   1      41.410  44.422  46.492  0.00  0.00    -0.013 A 
HETATM   10  C   UNK N   1      41.990  43.809  45.331  0.00  0.00    -0.020 A 
HETATM   11  C   UNK N   1      42.596  42.539  45.437  0.00  0.00     0.072 A 
HETATM   12  C   UNK N   1      41.979  44.502  43.985  0.00  0.00     0.052 C 
HETATM   13  C   UNK N   1      42.626  41.875  46.659  0.00  0.00     0.040 A 
HETATM   14  C   UNK N   1      42.082  42.456  47.793  0.00  0.00     0.040 A 
BRANCH   9  15
HETATM   15  C   UNK N   1      40.735  45.806  46.385  0.00  0.00     0.014 C 
HETATM   16  C   UNK N   1      41.463  46.891  47.186  0.00  0.00     0.015 C 
HETATM   17  C   UNK N   1      39.253  45.740  46.774  0.00  0.00     0.015 C 
ENDBRANCH   9  15
BRANCH  11  18
HETATM   18  O   UNK N   1      43.153  41.953  44.353  0.00  0.00    -0.360 OA
HETATM   19  H   UNK N   1      44.048  42.171  44.056  0.00  0.00     0.217 HD
ENDBRANCH  11  18
ENDBRANCH   7   8
ENDBRANCH   2   7
BRANCH   3  20
HETATM   20  O   UNK N   1      43.087  45.789  50.079  0.00  0.00    -0.388 OA
HETATM   21  H   UNK N   1      43.857  45.256  50.404  0.00  0.00     0.210 HD
ENDBRANCH   3  20
BRANCH   6  22
HETATM   22  C   UNK N   1      39.480  42.582  52.962  0.00  0.00     0.198 C 
BRANCH  22  23
HETATM   23  O   UNK N   1      39.094  43.303  54.101  0.00  0.00    -0.398 OA
HETATM   24  H   UNK N   1      39.474  44.214  54.005  0.00  0.00     0.209 HD
ENDBRANCH  22  23
ENDBRANCH   6  22
BRANCH   4  25
HETATM   25  O   UNK N   1      42.809  46.286  52.855  0.00  0.00    -0.390 OA
HETATM   26  H   UNK N   1      42.363  46.359  53.741  0.00  0.00     0.210 HD
ENDBRANCH   4  25
BRANCH   5  27
HETATM   27  O   UNK N   1      41.595  44.104  54.309  0.00  0.00    -0.390 OA
HETATM   28  H   UNK N   1      40.804  43.719  54.770  0.00  0.00     0.210 HD
ENDBRANCH   5  27
TORSDOF 9
ENDMDL
MODEL 2
REMARK VINA RESULT:      -6.3      1.639      6.525
REMARK  9 active torsions:
REMARK  status: ('A' for Active; 'I' for Inactive)
REMARK    1  A    between atoms: C_2  and  O_3 
REMARK    2  A    between atoms: O_3  and  C_4 
REMARK    3  A    between atoms: C_5  and  C_13 
REMARK    4  A    between atoms: C_7  and  O_8 
REMARK    5  A    between atoms: C_16  and  O_17 
REMARK    6  A    between atoms: C_19  and  O_20 
REMARK    7  A    between atoms: C_22  and  O_23 
REMARK    8  A    between atoms: C_25  and  C_26 
REMARK    9  A    between atoms: C_26  and  O_27 
ROOT
HETATM    1  O   UNK N   1      42.345  43.304  47.272  0.00  0.00    -0.348 OA
HETATM    2  C   UNK N   1      41.196  44.100  47.019  0.00  0.00     0.298 C 
HETATM    3  C   UNK N   1      41.450  45.006  45.792  0.00  0.00     0.205 C 
HETATM    4  C   UNK N   1      41.776  44.135  44.575  0.00  0.00     0.183 C 
HETATM    5  C   UNK N   1      42.925  43.163  44.906  0.00  0.00     0.180 C 
HETATM    6  C   UNK N   1      42.561  42.393  46.198  0.00  0.00     0.179 C 
ENDROOT
BRANCH   2   7
HETATM    7  O   UNK N   1      40.946  44.905  48.128  0.00  0.00    -0.317 OA
BRANCH   7   8
HETATM    8  C   UNK N   1      41.023  44.519  49.438  0.00  0.00     0.079 A 
HETATM    9  C   UNK N   1      41.563  45.415  50.410  0.00  0.00    -0.013 A 
HETATM   10  C   UNK N   1      41.584  45.009  51.786  0.00  0.00    -0.020 A 
HETATM   11  C   UNK N   1      41.096  43.735  52.149  0.00  0.00     0.072 A 
HETATM   12  C   UNK N   1      42.113  45.923  52.870  0.00  0.00     0.052 C 
HETATM   13  C   UNK N   1      40.602  42.870  51.179  0.00  0.00     0.040 A 
HETATM   14  C   UNK N   1      40.562  43.250  49.847  0.00  0.00     0.040 A 
BRANCH   9  15
HETATM   15  C   UNK N   1      42.105  46.801  50.000  0.00  0.00     0.014 C 
HETATM   16  C   UNK N   1      41.449  47.348  48.728  0.00  0.00     0.015 C 
HETATM   17  C   UNK N   1      43.633  46.791  49.868  0.00  0.00     0.015 C 
ENDBRANCH   9  15
BRANCH  11  18
HETATM   18  O   UNK N   1      41.104  43.342  53.443  0.00  0.00    -0.360 OA
HETATM   19  H   UNK N   1      41.208  42.414  53.696  0.00  0.00     0.217 HD
ENDBRANCH  11  18
ENDBRANCH   7   8
ENDBRANCH   2   7
BRANCH   3  20
HETATM   20  O   UNK N   1      40.314  45.780  45.501  0.00  0.00    -0.388 OA
HETATM   21  H   UNK N   1      39.746  45.786  46.312  0.00  0.00     0.210 HD
ENDBRANCH   3  20
BRANCH   6  22
HETATM   22  C   UNK N   1      43.665  41.401  46.597  0.00  0.00     0.198 C 
BRANCH  22  23
HETATM   23  O   UNK N   1      44.941  41.918  46.331  0.00  0.00    -0.398 OA
HETATM   24  H   UNK N   1      45.216  42.427  47.137  0.00  0.00     0.209 HD
ENDBRANCH  22  23
ENDBRANCH   6  22
BRANCH   4  25
HETATM   25  O   UNK N   1      42.086  44.933  43.458  0.00  0.00    -0.390 OA
HETATM   26  H   UNK N   1      42.985  45.330  43.612  0.00  0.00     0.210 HD
ENDBRANCH   4  25
BRANCH   5  27
HETATM   27  O   UNK N   1      43.111  42.259  43.847  0.00  0.00    -0.390 OA
HETATM   28  H   UNK N   1      43.153  41.350  44.244  0.00  0.00     0.210 HD
ENDBRANCH   5  27
TORSDOF 9
ENDMDL
MODEL 3
REMARK VINA RESULT:      -6.2      1.833      6.484
REMARK  9 active torsions:
REMARK  status: ('A' for Active; 'I' for Inactive)
REMARK    1  A    between atoms: C_2  and  O_3 
REMARK    2  A    between atoms: O_3  and  C_4 
REMARK    3  A    between atoms: C_5  and  C_13 
REMARK    4  A    between atoms: C_7  and  O_8 
REMARK    5  A    between atoms: C_16  and  O_17 
REMARK    6  A    between atoms: C_19  and  O_20 
REMARK    7  A    between atoms: C_22  and  O_23 
REMARK    8  A    between atoms: C_25  and  C_26 
REMARK    9  A    between atoms: C_26  and  O_27 
ROOT
HETATM    1  O   UNK N   1      42.100  43.873  47.219  0.00  0.00    -0.348 OA
HETATM    2  C   UNK N   1      41.154  44.821  46.746  0.00  0.00     0.298 C 
HETATM    3  C   UNK N   1      41.678  45.475  45.447  0.00  0.00     0.205 C 
HETATM    4  C   UNK N   1      41.920  44.390  44.393  0.00  0.00     0.183 C 
HETATM    5  C   UNK N   1      42.825  43.281  44.965  0.00  0.00     0.180 C 
HETATM    6  C   UNK N   1      42.215  42.790  46.301  0.00  0.00     0.179 C 
ENDROOT
BRANCH   2   7
HETATM    7  O   UNK N   1      40.982  45.813  47.710  0.00  0.00    -0.317 OA
BRANCH   7   8
HETATM    8  C   UNK N   1      41.372  45.741  49.019  0.00  0.00     0.079 A 
HETATM    9  C   UNK N   1      40.603  44.972  49.945  0.00  0.00    -0.013 A 
HETATM   10  C   UNK N   1      41.062  44.868  51.301  0.00  0.00    -0.020 A 
HETATM   11  C   UNK N   1      42.240  45.537  51.698  0.00  0.00     0.072 A 
HETATM   12  C   UNK N   1      40.313  44.042  52.325  0.00  0.00     0.052 C 
HETATM   13  C   UNK N   1      42.954  46.303  50.782  0.00  0.00     0.040 A 
HETATM   14  C   UNK N   1      42.533  46.405  49.465  0.00  0.00     0.040 A 
BRANCH   9  15
HETATM   15  C   UNK N   1      39.311  44.253  49.504  0.00  0.00     0.014 C 
HETATM   16  C   UNK N   1      39.570  42.861  48.918  0.00  0.00     0.015 C 
HETATM   17  C   UNK N   1      38.494  45.113  48.531  0.00  0.00     0.015 C 
ENDBRANCH   9  15
BRANCH  11  18
HETATM   18  O   UNK N   1      42.686  45.442  52.970  0.00  0.00    -0.360 OA
HETATM   19  H   UNK N   1      43.204  44.683  53.275  0.00  0.00     0.217 HD
ENDBRANCH  11  18
ENDBRANCH   7   8
ENDBRANCH   2   7
BRANCH   3  20
HETATM   20  O   UNK N   1      40.744  46.394  44.940  0.00  0.00    -0.388 OA
HETATM   21  H   UNK N   1      40.664  46.227  43.967  0.00  0.00     0.210 HD
ENDBRANCH   3  20
BRANCH   6  22
HETATM   22  C   UNK N   1      43.066  41.680  46.937  0.00  0.00     0.198 C 
BRANCH  22  23
HETATM   23  O   UNK N   1      44.402  41.753  46.517  0.00  0.00    -0.398 OA
HETATM   24  H   UNK N   1      44.408  42.270  45.670  0.00  0.00     0.209 HD
ENDBRANCH  22  23
ENDBRANCH   6  22
BRANCH   4  25
HETATM   25  O   UNK N   1      42.469  44.945  43.221  0.00  0.00    -0.390 OA
HETATM   26  H   UNK N   1      42.294  45.923  43.242  0.00  0.00     0.210 HD
ENDBRANCH   4  25
BRANCH   5  27
HETATM   27  O   UNK N   1      42.911  42.214  44.057  0.00  0.00    -0.390 OA
HETATM   28  H   UNK N   1      42.016  42.113  43.641  0.00  0.00     0.210 HD
ENDBRANCH   5  27
TORSDOF 9
ENDMDL
MODEL 4
REMARK VINA RESULT:      -5.8      2.347      6.478
REMARK  9 active torsions:
REMARK  status: ('A' for Active; 'I' for Inactive)
REMARK    1  A    between atoms: C_2  and  O_3 
REMARK    2  A    between atoms: O_3  and  C_4 
REMARK    3  A    between atoms: C_5  and  C_13 
REMARK    4  A    between atoms: C_7  and  O_8 
REMARK    5  A    between atoms: C_16  and  O_17 
REMARK    6  A    between atoms: C_19  and  O_20 
REMARK    7  A    between atoms: C_22  and  O_23 
REMARK    8  A    between atoms: C_25  and  C_26 
REMARK    9  A    between atoms: C_26  and  O_27 
ROOT
HETATM    1  O   UNK N   1      40.518  46.152  47.416  0.00  0.00    -0.348 OA
HETATM    2  C   UNK N   1      41.588  46.654  48.204  0.00  0.00     0.298 C 
HETATM    3  C   UNK N   1      42.671  47.264  47.285  0.00  0.00     0.205 C 
HETATM    4  C   UNK N   1      42.052  48.386  46.445  0.00  0.00     0.183 C 
HETATM    5  C   UNK N   1      40.797  47.875  45.710  0.00  0.00     0.180 C 
HETATM    6  C   UNK N   1      39.853  47.220  46.748  0.00  0.00     0.179 C 
ENDROOT
BRANCH   2   7
HETATM    7  O   UNK N   1      42.151  45.605  48.928  0.00  0.00    -0.317 OA
BRANCH   7   8
HETATM    8  C   UNK N   1      41.956  45.347  50.257  0.00  0.00     0.079 A 
HETATM    9  C   UNK N   1      41.092  44.280  50.651  0.00  0.00    -0.013 A 
HETATM   10  C   UNK N   1      40.944  43.994  52.049  0.00  0.00    -0.020 A 
HETATM   11  C   UNK N   1      41.629  44.776  53.002  0.00  0.00     0.072 A 
HETATM   12  C   UNK N   1      40.070  42.856  52.532  0.00  0.00     0.052 C 
HETATM   13  C   UNK N   1      42.442  45.828  52.593  0.00  0.00     0.040 A 
HETATM   14  C   UNK N   1      42.607  46.112  51.247  0.00  0.00     0.040 A 
BRANCH   9  15
HETATM   15  C   UNK N   1      40.338  43.437  49.600  0.00  0.00     0.014 C 
HETATM   16  C   UNK N   1      41.242  42.946  48.465  0.00  0.00     0.015 C 
HETATM   17  C   UNK N   1      39.121  44.189  49.045  0.00  0.00     0.015 C 
ENDBRANCH   9  15
BRANCH  11  18
HETATM   18  O   UNK N   1      41.504  44.513  54.323  0.00  0.00    -0.360 OA
HETATM   19  H   UNK N   1      42.197  44.058  54.822  0.00  0.00     0.217 HD
ENDBRANCH  11  18
ENDBRANCH   7   8
ENDBRANCH   2   7
BRANCH   3  20
HETATM   20  O   UNK N   1      43.726  47.798  48.043  0.00  0.00    -0.388 OA
HETATM   21  H   UNK N   1      44.234  48.409  47.452  0.00  0.00     0.210 HD
ENDBRANCH   3  20
BRANCH   6  22
HETATM   22  C   UNK N   1      38.574  46.681  46.088  0.00  0.00     0.198 C 
BRANCH  22  23
HETATM   23  O   UNK N   1      38.696  45.322  45.766  0.00  0.00    -0.398 OA
HETATM   24  H   UNK N   1      39.664  45.105  45.805  0.00  0.00     0.209 HD
ENDBRANCH  22  23
ENDBRANCH   6  22
BRANCH   4  25
HETATM   25  O   UNK N   1      42.995  48.912  45.542  0.00  0.00    -0.390 OA
HETATM   26  H   UNK N   1      42.663  49.801  45.244  0.00  0.00     0.210 HD
ENDBRANCH   4  25
BRANCH   5  27
HETATM   27  O   UNK N   1      40.144  48.943  45.075  0.00  0.00    -0.390 OA
HETATM   28  H   UNK N   1      40.549  49.780  45.421  0.00  0.00     0.210 HD
ENDBRANCH   5  27
TORSDOF 9
ENDMDL
MODEL 5
REMARK VINA RESULT:      -5.1      3.615      6.567
REMARK  9 active torsions:
REMARK  status: ('A' for Active; 'I' for Inactive)
REMARK    1  A    between atoms: C_2  and  O_3 
REMARK    2  A    between atoms: O_3  and  C_4 
REMARK    3  A    between atoms: C_5  and  C_13 
REMARK    4  A    between atoms: C_7  and  O_8 
REMARK    5  A    between atoms: C_16  and  O_17 
REMARK    6  A    between atoms: C_19  and  O_20 
REMARK    7  A    between atoms: C_22  and  O_23 
REMARK    8  A    between atoms: C_25  and  C_26 
REMARK    9  A    between atoms: C_26  and  O_27 
ROOT
HETATM    1  O   UNK N   1      39.280  47.506  45.135  0.00  0.00    -0.348 OA
HETATM    2  C   UNK N   1      40.073  47.359  46.305  0.00  0.00     0.298 C 
HETATM    3  C   UNK N   1      41.523  47.805  46.011  0.00  0.00     0.205 C 
HETATM    4  C   UNK N   1      41.523  49.265  45.547  0.00  0.00     0.183 C 
HETATM    5  C   UNK N   1      40.541  49.452  44.373  0.00  0.00     0.180 C 
HETATM    6  C   UNK N   1      39.163  48.884  44.789  0.00  0.00     0.179 C 
ENDROOT
BRANCH   2   7
HETATM    7  O   UNK N   1      40.082  46.017  46.682  0.00  0.00    -0.317 OA
BRANCH   7   8
HETATM    8  C   UNK N   1      40.875  45.036  46.152  0.00  0.00     0.079 A 
HETATM    9  C   UNK N   1      41.331  43.969  46.984  0.00  0.00    -0.013 A 
HETATM   10  C   UNK N   1      42.117  42.924  46.394  0.00  0.00    -0.020 A 
HETATM   11  C   UNK N   1      42.441  42.978  45.021  0.00  0.00     0.072 A 
HETATM   12  C   UNK N   1      42.604  41.746  47.212  0.00  0.00     0.052 C 
HETATM   13  C   UNK N   1      42.008  44.044  44.240  0.00  0.00     0.040 A 
HETATM   14  C   UNK N   1      41.238  45.056  44.789  0.00  0.00     0.040 A 
BRANCH   9  15
HETATM   15  C   UNK N   1      40.980  43.924  48.486  0.00  0.00     0.014 C 
HETATM   16  C   UNK N   1      39.476  44.041  48.754  0.00  0.00     0.015 C 
HETATM   17  C   UNK N   1      41.760  44.982  49.277  0.00  0.00     0.015 C 
ENDBRANCH   9  15
BRANCH  11  18
HETATM   18  O   UNK N   1      43.175  41.996  44.452  0.00  0.00    -0.360 OA
HETATM   19  H   UNK N   1      43.614  41.313  44.979  0.00  0.00     0.217 HD
ENDBRANCH  11  18
ENDBRANCH   7   8
ENDBRANCH   2   7
BRANCH   3  20
HETATM   20  O   UNK N   1      42.320  47.699  47.164  0.00  0.00    -0.388 OA
HETATM   21  H   UNK N   1      42.166  46.799  47.547  0.00  0.00     0.210 HD
ENDBRANCH   3  20
BRANCH   6  22
HETATM   22  C   UNK N   1      38.126  49.032  43.665  0.00  0.00     0.198 C 
BRANCH  22  23
HETATM   23  O   UNK N   1      38.743  49.217  42.419  0.00  0.00    -0.398 OA
HETATM   24  H   UNK N   1      38.438  50.097  42.077  0.00  0.00     0.209 HD
ENDBRANCH  22  23
ENDBRANCH   6  22
BRANCH   4  25
HETATM   25  O   UNK N   1      42.822  49.679  45.199  0.00  0.00    -0.390 OA
HETATM   26  H   UNK N   1      43.086  49.182  44.380  0.00  0.00     0.210 HD
ENDBRANCH   4  25
BRANCH   5  27
HETATM   27  O   UNK N   1      40.422  50.815  44.058  0.00  0.00    -0.390 OA
HETATM   28  H   UNK N   1      40.010  51.260  44.844  0.00  0.00     0.210 HD
ENDBRANCH   5  27
TORSDOF 9
ENDMDL
MODEL 6
REMARK VINA RESULT:      -5.0      4.347      7.618
REMARK  9 active torsions:
REMARK  status: ('A' for Active; 'I' for Inactive)
REMARK    1  A    between atoms: C_2  and  O_3 
REMARK    2  A    between atoms: O_3  and  C_4 
REMARK    3  A    between atoms: C_5  and  C_13 
REMARK    4  A    between atoms: C_7  and  O_8 
REMARK    5  A    between atoms: C_16  and  O_17 
REMARK    6  A    between atoms: C_19  and  O_20 
REMARK    7  A    between atoms: C_22  and  O_23 
REMARK    8  A    between atoms: C_25  and  C_26 
REMARK    9  A    between atoms: C_26  and  O_27 
ROOT
HETATM    1  O   UNK N   1      38.417  47.843  44.155  0.00  0.00    -0.348 OA
HETATM    2  C   UNK N   1      39.146  47.669  45.361  0.00  0.00     0.298 C 
HETATM    3  C   UNK N   1      40.579  48.222  45.190  0.00  0.00     0.205 C 
HETATM    4  C   UNK N   1      40.510  49.707  44.816  0.00  0.00     0.183 C 
HETATM    5  C   UNK N   1      39.591  49.908  43.595  0.00  0.00     0.180 C 
HETATM    6  C   UNK N   1      38.230  49.230  43.886  0.00  0.00     0.179 C 
ENDROOT
BRANCH   2   7
HETATM    7  O   UNK N   1      39.221  46.309  45.656  0.00  0.00    -0.317 OA
BRANCH   7   8
HETATM    8  C   UNK N   1      39.369  45.760  46.900  0.00  0.00     0.079 A 
HETATM    9  C   UNK N   1      40.307  44.703  47.101  0.00  0.00    -0.013 A 
HETATM   10  C   UNK N   1      40.483  44.180  48.425  0.00  0.00    -0.020 A 
HETATM   11  C   UNK N   1      39.718  44.698  49.492  0.00  0.00     0.072 A 
HETATM   12  C   UNK N   1      41.485  43.082  48.713  0.00  0.00     0.052 C 
HETATM   13  C   UNK N   1      38.789  45.708  49.264  0.00  0.00     0.040 A 
HETATM   14  C   UNK N   1      38.615  46.235  47.994  0.00  0.00     0.040 A 
BRANCH   9  15
HETATM   15  C   UNK N   1      41.131  44.136  45.925  0.00  0.00     0.014 C 
HETATM   16  C   UNK N   1      42.093  45.162  45.318  0.00  0.00     0.015 C 
HETATM   17  C   UNK N   1      40.225  43.528  44.846  0.00  0.00     0.015 C 
ENDBRANCH   9  15
BRANCH  11  18
HETATM   18  O   UNK N   1      39.878  44.219  50.746  0.00  0.00    -0.360 OA
HETATM   19  H   UNK N   1      40.742  43.937  51.080  0.00  0.00     0.217 HD
ENDBRANCH  11  18
ENDBRANCH   7   8
ENDBRANCH   2   7
BRANCH   3  20
HETATM   20  O   UNK N   1      41.310  48.092  46.383  0.00  0.00    -0.388 OA
HETATM   21  H   UNK N   1      40.671  48.199  47.133  0.00  0.00     0.210 HD
ENDBRANCH   3  20
BRANCH   6  22
HETATM   22  C   UNK N   1      37.256  49.386  42.708  0.00  0.00     0.198 C 
BRANCH  22  23
HETATM   23  O   UNK N   1      37.937  49.638  41.509  0.00  0.00    -0.398 OA
HETATM   24  H   UNK N   1      38.494  50.446  41.660  0.00  0.00     0.209 HD
ENDBRANCH  22  23
ENDBRANCH   6  22
BRANCH   4  25
HETATM   25  O   UNK N   1      41.797  50.222  44.579  0.00  0.00    -0.390 OA
HETATM   26  H   UNK N   1      42.290  50.210  45.443  0.00  0.00     0.210 HD
ENDBRANCH   4  25
BRANCH   5  27
HETATM   27  O   UNK N   1      39.401  51.279  43.357  0.00  0.00    -0.390 OA
HETATM   28  H   UNK N   1      40.111  51.565  42.724  0.00  0.00     0.210 HD
ENDBRANCH   5  27
TORSDOF 9
ENDMDL
MODEL 7
REMARK VINA RESULT:      -4.8     13.965     15.651
REMARK  9 active torsions:
REMARK  status: ('A' for Active; 'I' for Inactive)
REMARK    1  A    between atoms: C_2  and  O_3 
REMARK    2  A    between atoms: O_3  and  C_4 
REMARK    3  A    between atoms: C_5  and  C_13 
REMARK    4  A    between atoms: C_7  and  O_8 
REMARK    5  A    between atoms: C_16  and  O_17 
REMARK    6  A    between atoms: C_19  and  O_20 
REMARK    7  A    between atoms: C_22  and  O_23 
REMARK    8  A    between atoms: C_25  and  C_26 
REMARK    9  A    between atoms: C_26  and  O_27 
ROOT
HETATM    1  O   UNK N   1      36.728  44.375  64.144  0.00  0.00    -0.348 OA
HETATM    2  C   UNK N   1      36.453  44.991  62.894  0.00  0.00     0.298 C 
HETATM    3  C   UNK N   1      37.019  46.429  62.886  0.00  0.00     0.205 C 
HETATM    4  C   UNK N   1      38.530  46.382  63.138  0.00  0.00     0.183 C 
HETATM    5  C   UNK N   1      38.834  45.577  64.416  0.00  0.00     0.180 C 
HETATM    6  C   UNK N   1      38.133  44.202  64.310  0.00  0.00     0.179 C 
ENDROOT
BRANCH   2   7
HETATM    7  O   UNK N   1      35.072  45.051  62.710  0.00  0.00    -0.317 OA
BRANCH   7   8
HETATM    8  C   UNK N   1      34.299  44.101  62.102  0.00  0.00     0.079 A 
HETATM    9  C   UNK N   1      33.017  43.779  62.644  0.00  0.00    -0.013 A 
HETATM   10  C   UNK N   1      32.201  42.818  61.958  0.00  0.00    -0.020 A 
HETATM   11  C   UNK N   1      32.682  42.197  60.785  0.00  0.00     0.072 A 
HETATM   12  C   UNK N   1      30.819  42.457  62.460  0.00  0.00     0.052 C 
HETATM   13  C   UNK N   1      33.946  42.508  60.295  0.00  0.00     0.040 A 
HETATM   14  C   UNK N   1      34.743  43.442  60.936  0.00  0.00     0.040 A 
BRANCH   9  15
HETATM   15  C   UNK N   1      32.505  44.455  63.933  0.00  0.00     0.014 C 
HETATM   16  C   UNK N   1      32.466  45.984  63.833  0.00  0.00     0.015 C 
HETATM   17  C   UNK N   1      33.309  44.007  65.160  0.00  0.00     0.015 C 
ENDBRANCH   9  15
BRANCH  11  18
HETATM   18  O   UNK N   1      31.920  41.296  60.126  0.00  0.00    -0.360 OA
HETATM   19  H   UNK N   1      32.179  40.366  60.050  0.00  0.00     0.217 HD
ENDBRANCH  11  18
ENDBRANCH   7   8
ENDBRANCH   2   7
BRANCH   3  20
HETATM   20  O   UNK N   1      36.788  47.049  61.646  0.00  0.00    -0.388 OA
HETATM   21  H   UNK N   1      36.476  46.348  61.020  0.00  0.00     0.210 HD
ENDBRANCH   3  20
BRANCH   6  22
HETATM   22  C   UNK N   1      38.388  43.338  65.555  0.00  0.00     0.198 C 
BRANCH  22  23
HETATM   23  O   UNK N   1      39.019  42.130  65.221  0.00  0.00    -0.398 OA
HETATM   24  H   UNK N   1      38.697  41.881  64.316  0.00  0.00     0.209 HD
ENDBRANCH  22  23
ENDBRANCH   6  22
BRANCH   4  25
HETATM   25  O   UNK N   1      39.065  47.682  63.211  0.00  0.00    -0.390 OA
HETATM   26  H   UNK N   1      38.388  48.307  62.837  0.00  0.00     0.210 HD
ENDBRANCH   4  25
BRANCH   5  27
HETATM   27  O   UNK N   1      40.220  45.399  64.554  0.00  0.00    -0.390 OA
HETATM   28  H   UNK N   1      40.356  44.696  65.242  0.00  0.00     0.210 HD
ENDBRANCH   5  27
TORSDOF 9
ENDMDL
MODEL 8
REMARK VINA RESULT:      -4.8      5.032      8.219
REMARK  9 active torsions:
REMARK  status: ('A' for Active; 'I' for Inactive)
REMARK    1  A    between atoms: C_2  and  O_3 
REMARK    2  A    between atoms: O_3  and  C_4 
REMARK    3  A    between atoms: C_5  and  C_13 
REMARK    4  A    between atoms: C_7  and  O_8 
REMARK    5  A    between atoms: C_16  and  O_17 
REMARK    6  A    between atoms: C_19  and  O_20 
REMARK    7  A    between atoms: C_22  and  O_23 
REMARK    8  A    between atoms: C_25  and  C_26 
REMARK    9  A    between atoms: C_26  and  O_27 
ROOT
HETATM    1  O   UNK N   1      38.462  47.931  44.210  0.00  0.00    -0.348 OA
HETATM    2  C   UNK N   1      39.297  48.795  44.968  0.00  0.00     0.298 C 
HETATM    3  C   UNK N   1      40.092  49.718  44.018  0.00  0.00     0.205 C 
HETATM    4  C   UNK N   1      39.114  50.533  43.164  0.00  0.00     0.183 C 
HETATM    5  C   UNK N   1      38.110  49.597  42.463  0.00  0.00     0.180 C 
HETATM    6  C   UNK N   1      37.461  48.683  43.530  0.00  0.00     0.179 C 
ENDROOT
BRANCH   2   7
HETATM    7  O   UNK N   1      40.196  48.027  45.706  0.00  0.00    -0.317 OA
BRANCH   7   8
HETATM    8  C   UNK N   1      39.873  47.035  46.590  0.00  0.00     0.079 A 
HETATM    9  C   UNK N   1      40.831  46.615  47.563  0.00  0.00    -0.013 A 
HETATM   10  C   UNK N   1      40.451  45.610  48.514  0.00  0.00    -0.020 A 
HETATM   11  C   UNK N   1      39.159  45.044  48.460  0.00  0.00     0.072 A 
HETATM   12  C   UNK N   1      41.406  45.144  49.592  0.00  0.00     0.052 C 
HETATM   13  C   UNK N   1      38.256  45.451  47.484  0.00  0.00     0.040 A 
HETATM   14  C   UNK N   1      38.600  46.429  46.565  0.00  0.00     0.040 A 
BRANCH   9  15
HETATM   15  C   UNK N   1      42.244  47.232  47.607  0.00  0.00     0.014 C 
HETATM   16  C   UNK N   1      42.459  48.154  48.812  0.00  0.00     0.015 C 
HETATM   17  C   UNK N   1      42.582  47.957  46.298  0.00  0.00     0.015 C 
ENDBRANCH   9  15
BRANCH  11  18
HETATM   18  O   UNK N   1      38.787  44.101  49.354  0.00  0.00    -0.360 OA
HETATM   19  H   UNK N   1      38.034  44.229  49.950  0.00  0.00     0.217 HD
ENDBRANCH  11  18
ENDBRANCH   7   8
ENDBRANCH   2   7
BRANCH   3  20
HETATM   20  O   UNK N   1      40.901  50.606  44.746  0.00  0.00    -0.388 OA
HETATM   21  H   UNK N   1      40.720  51.518  44.404  0.00  0.00     0.210 HD
ENDBRANCH   3  20
BRANCH   6  22
HETATM   22  C   UNK N   1      36.444  47.716  42.905  0.00  0.00     0.198 C 
BRANCH  22  23
HETATM   23  O   UNK N   1      35.147  48.250  42.927  0.00  0.00    -0.398 OA
HETATM   24  H   UNK N   1      35.001  48.679  42.044  0.00  0.00     0.209 HD
ENDBRANCH  22  23
ENDBRANCH   6  22
BRANCH   4  25
HETATM   25  O   UNK N   1      39.807  51.330  42.234  0.00  0.00    -0.390 OA
HETATM   26  H   UNK N   1      40.315  50.720  41.635  0.00  0.00     0.210 HD
ENDBRANCH   4  25
BRANCH   5  27
HETATM   27  O   UNK N   1      37.120  50.354  41.815  0.00  0.00    -0.390 OA
HETATM   28  H   UNK N   1      37.545  50.770  41.020  0.00  0.00     0.210 HD
ENDBRANCH   5  27
TORSDOF 9
ENDMDL
MODEL 9
REMARK VINA RESULT:      -4.5     12.978     16.348
REMARK  9 active torsions:
REMARK  status: ('A' for Active; 'I' for Inactive)
REMARK    1  A    between atoms: C_2  and  O_3 
REMARK    2  A    between atoms: O_3  and  C_4 
REMARK    3  A    between atoms: C_5  and  C_13 
REMARK    4  A    between atoms: C_7  and  O_8 
REMARK    5  A    between atoms: C_16  and  O_17 
REMARK    6  A    between atoms: C_19  and  O_20 
REMARK    7  A    between atoms: C_22  and  O_23 
REMARK    8  A    between atoms: C_25  and  C_26 
REMARK    9  A    between atoms: C_26  and  O_27 
ROOT
HETATM    1  O   UNK N   1      29.745  48.862  57.573  0.00  0.00    -0.348 OA
HETATM    2  C   UNK N   1      28.876  47.861  58.084  0.00  0.00     0.298 C 
HETATM    3  C   UNK N   1      27.651  48.526  58.752  0.00  0.00     0.205 C 
HETATM    4  C   UNK N   1      26.919  49.394  57.723  0.00  0.00     0.183 C 
HETATM    5  C   UNK N   1      27.902  50.377  57.058  0.00  0.00     0.180 C 
HETATM    6  C   UNK N   1      29.109  49.574  56.515  0.00  0.00     0.179 C 
ENDROOT
BRANCH   2   7
HETATM    7  O   UNK N   1      29.558  47.112  59.041  0.00  0.00    -0.317 OA
BRANCH   7   8
HETATM    8  C   UNK N   1      30.420  46.079  58.792  0.00  0.00     0.079 A 
HETATM    9  C   UNK N   1      30.687  45.118  59.814  0.00  0.00    -0.013 A 
HETATM   10  C   UNK N   1      31.551  44.013  59.512  0.00  0.00    -0.020 A 
HETATM   11  C   UNK N   1      32.135  43.908  58.232  0.00  0.00     0.072 A 
HETATM   12  C   UNK N   1      31.849  42.942  60.540  0.00  0.00     0.052 C 
HETATM   13  C   UNK N   1      31.881  44.874  57.263  0.00  0.00     0.040 A 
HETATM   14  C   UNK N   1      31.039  45.940  57.532  0.00  0.00     0.040 A 
BRANCH   9  15
HETATM   15  C   UNK N   1      30.052  45.248  61.215  0.00  0.00     0.014 C 
HETATM   16  C   UNK N   1      28.521  45.187  61.187  0.00  0.00     0.015 C 
HETATM   17  C   UNK N   1      30.536  46.513  61.936  0.00  0.00     0.015 C 
ENDBRANCH   9  15
BRANCH  11  18
HETATM   18  O   UNK N   1      32.947  42.869  57.932  0.00  0.00    -0.360 OA
HETATM   19  H   UNK N   1      33.134  42.612  57.018  0.00  0.00     0.217 HD
ENDBRANCH  11  18
ENDBRANCH   7   8
ENDBRANCH   2   7
BRANCH   3  20
HETATM   20  O   UNK N   1      26.759  47.554  59.237  0.00  0.00    -0.388 OA
HETATM   21  H   UNK N   1      26.597  47.755  60.193  0.00  0.00     0.210 HD
ENDBRANCH   3  20
BRANCH   6  22
HETATM   22  C   UNK N   1      30.139  50.489  55.836  0.00  0.00     0.198 C 
BRANCH  22  23
HETATM   23  O   UNK N   1      29.952  50.531  54.446  0.00  0.00    -0.398 OA
HETATM   24  H   UNK N   1      29.899  51.490  54.194  0.00  0.00     0.209 HD
ENDBRANCH  22  23
ENDBRANCH   6  22
BRANCH   4  25
HETATM   25  O   UNK N   1      25.841  50.073  58.320  0.00  0.00    -0.390 OA
HETATM   26  H   UNK N   1      25.371  50.578  57.604  0.00  0.00     0.210 HD
ENDBRANCH   4  25
BRANCH   5  27
HETATM   27  O   UNK N   1      27.266  51.055  56.005  0.00  0.00    -0.390 OA
HETATM   28  H   UNK N   1      27.911  51.093  55.252  0.00  0.00     0.210 HD
ENDBRANCH   5  27
TORSDOF 9
ENDMDL
