MODEL 1
REMARK VINA RESULT:      -6.6      0.000      0.000
REMARK  9 active torsions:
REMARK  status: ('A' for Active; 'I' for Inactive)
REMARK    1  A    between atoms: C_2  and  O_3 
REMARK    2  A    between atoms: O_3  and  C_4 
REMARK    3  A    between atoms: C_6  and  C_12 
REMARK    4  A    between atoms: C_7  and  O_8 
REMARK    5  A    between atoms: C_16  and  O_17 
REMARK    6  A    between atoms: C_19  and  O_20 
REMARK    7  A    between atoms: C_22  and  O_23 
REMARK    8  A    between atoms: C_25  and  C_26 
REMARK    9  A    between atoms: C_26  and  O_27 
ROOT
HETATM    1  O   UNK N   1      41.755  45.394  46.189  0.00  0.00    -0.348 OA
HETATM    2  C   UNK N   1      42.167  44.303  47.019  0.00  0.00     0.298 C 
HETATM    3  C   UNK N   1      42.339  42.921  46.331  0.00  0.00     0.205 C 
HETATM    4  C   UNK N   1      42.948  43.172  44.963  0.00  0.00     0.183 C 
HETATM    5  C   UNK N   1      41.963  44.018  44.124  0.00  0.00     0.180 C 
HETATM    6  C   UNK N   1      41.109  45.008  44.989  0.00  0.00     0.179 C 
ENDROOT
BRANCH   2   7
HETATM    7  O   UNK N   1      41.324  44.143  48.103  0.00  0.00    -0.317 OA
BRANCH   7   8
HETATM    8  C   UNK N   1      41.545  44.570  49.376  0.00  0.00     0.078 A 
HETATM    9  C   UNK N   1      41.057  43.786  50.447  0.00  0.00    -0.019 A 
HETATM   10  C   UNK N   1      41.345  44.163  51.802  0.00  0.00    -0.013 A 
HETATM   11  C   UNK N   1      40.253  42.540  50.129  0.00  0.00     0.052 C 
HETATM   12  C   UNK N   1      42.096  45.364  52.024  0.00  0.00     0.073 A 
HETATM   13  C   UNK N   1      42.530  46.126  50.940  0.00  0.00     0.040 A 
HETATM   14  C   UNK N   1      42.270  45.737  49.635  0.00  0.00     0.040 A 
BRANCH  10  15
HETATM   15  C   UNK N   1      40.869  43.263  52.962  0.00  0.00     0.014 C 
HETATM   16  C   UNK N   1      42.049  42.610  53.705  0.00  0.00     0.015 C 
HETATM   17  C   UNK N   1      39.869  43.961  53.897  0.00  0.00     0.015 C 
ENDBRANCH  10  15
BRANCH  12  18
HETATM   18  O   UNK N   1      42.430  45.821  53.252  0.00  0.00    -0.360 OA
HETATM   19  H   UNK N   1      42.074  46.603  53.678  0.00  0.00     0.217 HD
ENDBRANCH  12  18
ENDBRANCH   7   8
ENDBRANCH   2   7
BRANCH   3  20
HETATM   20  O   UNK N   1      43.173  42.126  47.137  0.00  0.00    -0.388 OA
HETATM   21  H   UNK N   1      43.488  41.366  46.584  0.00  0.00     0.210 HD
ENDBRANCH   3  20
BRANCH   6  22
HETATM   22  C   UNK N   1      39.666  44.544  45.289  0.00  0.00     0.198 C 
BRANCH  22  23
HETATM   23  O   UNK N   1      39.389  43.362  44.591  0.00  0.00    -0.398 OA
HETATM   24  H   UNK N   1      39.775  43.478  43.684  0.00  0.00     0.209 HD
ENDBRANCH  22  23
ENDBRANCH   6  22
BRANCH   4  25
HETATM   25  O   UNK N   1      43.232  41.959  44.314  0.00  0.00    -0.390 OA
HETATM   26  H   UNK N   1      42.363  41.556  44.058  0.00  0.00     0.210 HD
ENDBRANCH   4  25
BRANCH   5  27
HETATM   27  O   UNK N   1      42.723  44.717  43.171  0.00  0.00    -0.390 OA
HETATM   28  H   UNK N   1      42.475  45.676  43.250  0.00  0.00     0.210 HD
ENDBRANCH   5  27
TORSDOF 9
ENDMDL
MODEL 2
REMARK VINA RESULT:      -6.2      2.004      3.345
REMARK  9 active torsions:
REMARK  status: ('A' for Active; 'I' for Inactive)
REMARK    1  A    between atoms: C_2  and  O_3 
REMARK    2  A    between atoms: O_3  and  C_4 
REMARK    3  A    between atoms: C_6  and  C_12 
REMARK    4  A    between atoms: C_7  and  O_8 
REMARK    5  A    between atoms: C_16  and  O_17 
REMARK    6  A    between atoms: C_19  and  O_20 
REMARK    7  A    between atoms: C_22  and  O_23 
REMARK    8  A    between atoms: C_25  and  C_26 
REMARK    9  A    between atoms: C_26  and  O_27 
ROOT
HETATM    1  O   UNK N   1      41.964  45.697  46.015  0.00  0.00    -0.348 OA
HETATM    2  C   UNK N   1      41.198  45.063  47.044  0.00  0.00     0.298 C 
HETATM    3  C   UNK N   1      40.092  45.915  47.724  0.00  0.00     0.205 C 
HETATM    4  C   UNK N   1      39.448  46.762  46.640  0.00  0.00     0.183 C 
HETATM    5  C   UNK N   1      40.511  47.718  46.054  0.00  0.00     0.180 C 
HETATM    6  C   UNK N   1      41.957  47.113  46.064  0.00  0.00     0.179 C 
ENDROOT
BRANCH   2   7
HETATM    7  O   UNK N   1      42.010  44.543  48.035  0.00  0.00    -0.317 OA
BRANCH   7   8
HETATM    8  C   UNK N   1      41.970  44.842  49.361  0.00  0.00     0.078 A 
HETATM    9  C   UNK N   1      41.461  43.875  50.259  0.00  0.00    -0.019 A 
HETATM   10  C   UNK N   1      41.482  44.124  51.672  0.00  0.00    -0.013 A 
HETATM   11  C   UNK N   1      40.921  42.574  49.695  0.00  0.00     0.052 C 
HETATM   12  C   UNK N   1      41.990  45.385  52.127  0.00  0.00     0.073 A 
HETATM   13  C   UNK N   1      42.452  46.325  51.207  0.00  0.00     0.040 A 
HETATM   14  C   UNK N   1      42.453  46.061  49.846  0.00  0.00     0.040 A 
BRANCH  10  15
HETATM   15  C   UNK N   1      40.990  43.033  52.647  0.00  0.00     0.014 C 
HETATM   16  C   UNK N   1      42.125  42.511  53.546  0.00  0.00     0.015 C 
HETATM   17  C   UNK N   1      39.732  43.444  53.427  0.00  0.00     0.015 C 
ENDBRANCH  10  15
BRANCH  12  18
HETATM   18  O   UNK N   1      42.063  45.735  53.432  0.00  0.00    -0.360 OA
HETATM   19  H   UNK N   1      42.801  45.568  54.020  0.00  0.00     0.217 HD
ENDBRANCH  12  18
ENDBRANCH   7   8
ENDBRANCH   2   7
BRANCH   3  20
HETATM   20  O   UNK N   1      39.167  45.042  48.324  0.00  0.00    -0.388 OA
HETATM   21  H   UNK N   1      39.223  44.173  47.847  0.00  0.00     0.210 HD
ENDBRANCH   3  20
BRANCH   6  22
HETATM   22  C   UNK N   1      42.871  47.609  47.206  0.00  0.00     0.198 C 
BRANCH  22  23
HETATM   23  O   UNK N   1      43.725  48.613  46.733  0.00  0.00    -0.398 OA
HETATM   24  H   UNK N   1      44.058  48.303  45.852  0.00  0.00     0.209 HD
ENDBRANCH  22  23
ENDBRANCH   6  22
BRANCH   4  25
HETATM   25  O   UNK N   1      38.362  47.490  47.156  0.00  0.00    -0.390 OA
HETATM   26  H   UNK N   1      38.073  48.123  46.450  0.00  0.00     0.210 HD
ENDBRANCH   4  25
BRANCH   5  27
HETATM   27  O   UNK N   1      40.111  48.032  44.744  0.00  0.00    -0.390 OA
HETATM   28  H   UNK N   1      39.503  47.305  44.444  0.00  0.00     0.210 HD
ENDBRANCH   5  27
TORSDOF 9
ENDMDL
MODEL 3
REMARK VINA RESULT:      -5.6      2.604      3.793
REMARK  9 active torsions:
REMARK  status: ('A' for Active; 'I' for Inactive)
REMARK    1  A    between atoms: C_2  and  O_3 
REMARK    2  A    between atoms: O_3  and  C_4 
REMARK    3  A    between atoms: C_6  and  C_12 
REMARK    4  A    between atoms: C_7  and  O_8 
REMARK    5  A    between atoms: C_16  and  O_17 
REMARK    6  A    between atoms: C_19  and  O_20 
REMARK    7  A    between atoms: C_22  and  O_23 
REMARK    8  A    between atoms: C_25  and  C_26 
REMARK    9  A    between atoms: C_26  and  O_27 
ROOT
HETATM    1  O   UNK N   1      40.065  47.143  47.475  0.00  0.00    -0.348 OA
HETATM    2  C   UNK N   1      41.461  47.213  47.788  0.00  0.00     0.298 C 
HETATM    3  C   UNK N   1      42.408  47.716  46.664  0.00  0.00     0.205 C 
HETATM    4  C   UNK N   1      41.685  48.832  45.932  0.00  0.00     0.183 C 
HETATM    5  C   UNK N   1      40.410  48.257  45.276  0.00  0.00     0.180 C 
HETATM    6  C   UNK N   1      39.775  47.078  46.090  0.00  0.00     0.179 C 
ENDROOT
BRANCH   2   7
HETATM    7  O   UNK N   1      41.941  46.000  48.245  0.00  0.00    -0.317 OA
BRANCH   7   8
HETATM    8  C   UNK N   1      41.395  45.224  49.220  0.00  0.00     0.078 A 
HETATM    9  C   UNK N   1      41.954  45.272  50.517  0.00  0.00    -0.019 A 
HETATM   10  C   UNK N   1      41.350  44.531  51.588  0.00  0.00    -0.013 A 
HETATM   11  C   UNK N   1      43.179  46.136  50.748  0.00  0.00     0.052 C 
HETATM   12  C   UNK N   1      40.206  43.722  51.288  0.00  0.00     0.073 A 
HETATM   13  C   UNK N   1      39.705  43.677  49.987  0.00  0.00     0.040 A 
HETATM   14  C   UNK N   1      40.279  44.419  48.967  0.00  0.00     0.040 A 
BRANCH  10  15
HETATM   15  C   UNK N   1      41.926  44.647  53.016  0.00  0.00     0.014 C 
HETATM   16  C   UNK N   1      41.273  45.793  53.808  0.00  0.00     0.015 C 
HETATM   17  C   UNK N   1      41.937  43.309  53.772  0.00  0.00     0.015 C 
ENDBRANCH  10  15
BRANCH  12  18
HETATM   18  O   UNK N   1      39.550  42.981  52.210  0.00  0.00    -0.360 OA
HETATM   19  H   UNK N   1      39.345  43.251  53.108  0.00  0.00     0.217 HD
ENDBRANCH  12  18
ENDBRANCH   7   8
ENDBRANCH   2   7
BRANCH   3  20
HETATM   20  O   UNK N   1      43.600  48.167  47.260  0.00  0.00    -0.388 OA
HETATM   21  H   UNK N   1      44.296  47.479  47.096  0.00  0.00     0.210 HD
ENDBRANCH   3  20
BRANCH   6  22
HETATM   22  C   UNK N   1      40.083  45.664  45.550  0.00  0.00     0.198 C 
BRANCH  22  23
HETATM   23  O   UNK N   1      39.017  44.800  45.835  0.00  0.00    -0.398 OA
HETATM   24  H   UNK N   1      38.638  44.529  44.959  0.00  0.00     0.209 HD
ENDBRANCH  22  23
ENDBRANCH   6  22
BRANCH   4  25
HETATM   25  O   UNK N   1      42.519  49.414  44.962  0.00  0.00    -0.390 OA
HETATM   26  H   UNK N   1      42.273  50.373  44.904  0.00  0.00     0.210 HD
ENDBRANCH   4  25
BRANCH   5  27
HETATM   27  O   UNK N   1      39.497  49.317  45.141  0.00  0.00    -0.390 OA
HETATM   28  H   UNK N   1      38.698  49.082  45.681  0.00  0.00     0.210 HD
ENDBRANCH   5  27
TORSDOF 9
ENDMDL
MODEL 4
REMARK VINA RESULT:      -5.6     14.176     16.697
REMARK  9 active torsions:
REMARK  status: ('A' for Active; 'I' for Inactive)
REMARK    1  A    between atoms: C_2  and  O_3 
REMARK    2  A    between atoms: O_3  and  C_4 
REMARK    3  A    between atoms: C_6  and  C_12 
REMARK    4  A    between atoms: C_7  and  O_8 
REMARK    5  A    between atoms: C_16  and  O_17 
REMARK    6  A    between atoms: C_19  and  O_20 
REMARK    7  A    between atoms: C_22  and  O_23 
REMARK    8  A    between atoms: C_25  and  C_26 
REMARK    9  A    between atoms: C_26  and  O_27 
ROOT
HETATM    1  O   UNK N   1      28.344  55.203  42.716  0.00  0.00    -0.348 OA
HETATM    2  C   UNK N   1      29.639  55.322  42.118  0.00  0.00     0.298 C 
HETATM    3  C   UNK N   1      29.704  55.960  40.703  0.00  0.00     0.205 C 
HETATM    4  C   UNK N   1      28.691  57.090  40.672  0.00  0.00     0.183 C 
HETATM    5  C   UNK N   1      27.277  56.501  40.879  0.00  0.00     0.180 C 
HETATM    6  C   UNK N   1      27.267  55.230  41.797  0.00  0.00     0.179 C 
ENDROOT
BRANCH   2   7
HETATM    7  O   UNK N   1      30.292  54.104  42.072  0.00  0.00    -0.317 OA
BRANCH   7   8
HETATM    8  C   UNK N   1      31.191  53.628  42.975  0.00  0.00     0.078 A 
HETATM    9  C   UNK N   1      31.757  52.351  42.759  0.00  0.00    -0.019 A 
HETATM   10  C   UNK N   1      32.770  51.854  43.645  0.00  0.00    -0.013 A 
HETATM   11  C   UNK N   1      31.286  51.541  41.565  0.00  0.00     0.052 C 
HETATM   12  C   UNK N   1      33.149  52.669  44.762  0.00  0.00     0.073 A 
HETATM   13  C   UNK N   1      32.542  53.910  44.958  0.00  0.00     0.040 A 
HETATM   14  C   UNK N   1      31.585  54.391  44.079  0.00  0.00     0.040 A 
BRANCH  10  15
HETATM   15  C   UNK N   1      33.432  50.488  43.360  0.00  0.00     0.014 C 
HETATM   16  C   UNK N   1      34.967  50.594  43.304  0.00  0.00     0.015 C 
HETATM   17  C   UNK N   1      32.930  49.369  44.285  0.00  0.00     0.015 C 
ENDBRANCH  10  15
BRANCH  12  18
HETATM   18  O   UNK N   1      34.091  52.312  45.664  0.00  0.00    -0.360 OA
HETATM   19  H   UNK N   1      35.039  52.400  45.554  0.00  0.00     0.217 HD
ENDBRANCH  12  18
ENDBRANCH   7   8
ENDBRANCH   2   7
BRANCH   3  20
HETATM   20  O   UNK N   1      31.014  56.425  40.488  0.00  0.00    -0.388 OA
HETATM   21  H   UNK N   1      31.613  55.929  41.104  0.00  0.00     0.210 HD
ENDBRANCH   3  20
BRANCH   6  22
HETATM   22  C   UNK N   1      27.171  53.880  41.052  0.00  0.00     0.198 C 
BRANCH  22  23
HETATM   23  O   UNK N   1      26.101  53.130  41.556  0.00  0.00    -0.398 OA
HETATM   24  H   UNK N   1      25.752  53.635  42.336  0.00  0.00     0.209 HD
ENDBRANCH  22  23
ENDBRANCH   6  22
BRANCH   4  25
HETATM   25  O   UNK N   1      28.760  57.788  39.454  0.00  0.00    -0.390 OA
HETATM   26  H   UNK N   1      29.697  57.721  39.134  0.00  0.00     0.210 HD
ENDBRANCH   4  25
BRANCH   5  27
HETATM   27  O   UNK N   1      26.479  57.519  41.428  0.00  0.00    -0.390 OA
HETATM   28  H   UNK N   1      26.943  58.379  41.251  0.00  0.00     0.210 HD
ENDBRANCH   5  27
TORSDOF 9
ENDMDL
MODEL 5
REMARK VINA RESULT:      -5.5     14.249     16.987
REMARK  9 active torsions:
REMARK  status: ('A' for Active; 'I' for Inactive)
REMARK    1  A    between atoms: C_2  and  O_3 
REMARK    2  A    between atoms: O_3  and  C_4 
REMARK    3  A    between atoms: C_6  and  C_12 
REMARK    4  A    between atoms: C_7  and  O_8 
REMARK    5  A    between atoms: C_16  and  O_17 
REMARK    6  A    between atoms: C_19  and  O_20 
REMARK    7  A    between atoms: C_22  and  O_23 
REMARK    8  A    between atoms: C_25  and  C_26 
REMARK    9  A    between atoms: C_26  and  O_27 
ROOT
HETATM    1  O   UNK N   1      27.722  53.520  41.474  0.00  0.00    -0.348 OA
HETATM    2  C   UNK N   1      28.691  54.286  40.750  0.00  0.00     0.298 C 
HETATM    3  C   UNK N   1      28.373  54.595  39.262  0.00  0.00     0.205 C 
HETATM    4  C   UNK N   1      26.884  54.878  39.169  0.00  0.00     0.183 C 
HETATM    5  C   UNK N   1      26.107  53.607  39.582  0.00  0.00     0.180 C 
HETATM    6  C   UNK N   1      26.854  52.750  40.661  0.00  0.00     0.179 C 
ENDROOT
BRANCH   2   7
HETATM    7  O   UNK N   1      29.945  53.708  40.812  0.00  0.00    -0.317 OA
BRANCH   7   8
HETATM    8  C   UNK N   1      30.679  53.471  41.933  0.00  0.00     0.078 A 
HETATM    9  C   UNK N   1      31.360  52.238  42.049  0.00  0.00    -0.019 A 
HETATM   10  C   UNK N   1      32.210  51.991  43.179  0.00  0.00    -0.013 A 
HETATM   11  C   UNK N   1      31.188  51.207  40.949  0.00  0.00     0.052 C 
HETATM   12  C   UNK N   1      32.307  53.005  44.186  0.00  0.00     0.073 A 
HETATM   13  C   UNK N   1      31.592  54.195  44.049  0.00  0.00     0.040 A 
HETATM   14  C   UNK N   1      30.797  54.435  42.940  0.00  0.00     0.040 A 
BRANCH  10  15
HETATM   15  C   UNK N   1      33.005  50.669  43.261  0.00  0.00     0.014 C 
HETATM   16  C   UNK N   1      34.521  50.916  43.358  0.00  0.00     0.015 C 
HETATM   17  C   UNK N   1      32.471  49.710  44.335  0.00  0.00     0.015 C 
ENDBRANCH  10  15
BRANCH  12  18
HETATM   18  O   UNK N   1      33.075  52.890  45.293  0.00  0.00    -0.360 OA
HETATM   19  H   UNK N   1      33.998  53.138  45.368  0.00  0.00     0.217 HD
ENDBRANCH  12  18
ENDBRANCH   7   8
ENDBRANCH   2   7
BRANCH   3  20
HETATM   20  O   UNK N   1      29.142  55.705  38.868  0.00  0.00    -0.388 OA
HETATM   21  H   UNK N   1      29.175  55.709  37.876  0.00  0.00     0.210 HD
ENDBRANCH   3  20
BRANCH   6  22
HETATM   22  C   UNK N   1      27.596  51.509  40.119  0.00  0.00     0.198 C 
BRANCH  22  23
HETATM   23  O   UNK N   1      27.192  51.247  38.804  0.00  0.00    -0.398 OA
HETATM   24  H   UNK N   1      27.694  51.880  38.227  0.00  0.00     0.209 HD
ENDBRANCH  22  23
ENDBRANCH   6  22
BRANCH   4  25
HETATM   25  O   UNK N   1      26.531  55.270  37.867  0.00  0.00    -0.390 OA
HETATM   26  H   UNK N   1      25.836  55.972  37.953  0.00  0.00     0.210 HD
ENDBRANCH   4  25
BRANCH   5  27
HETATM   27  O   UNK N   1      24.852  54.024  40.057  0.00  0.00    -0.390 OA
HETATM   28  H   UNK N   1      24.780  54.997  39.873  0.00  0.00     0.210 HD
ENDBRANCH   5  27
TORSDOF 9
ENDMDL
MODEL 6
REMARK VINA RESULT:      -5.3     14.266     16.962
REMARK  9 active torsions:
REMARK  status: ('A' for Active; 'I' for Inactive)
REMARK    1  A    between atoms: C_2  and  O_3 
REMARK    2  A    between atoms: O_3  and  C_4 
REMARK    3  A    between atoms: C_6  and  C_12 
REMARK    4  A    between atoms: C_7  and  O_8 
REMARK    5  A    between atoms: C_16  and  O_17 
REMARK    6  A    between atoms: C_19  and  O_20 
REMARK    7  A    between atoms: C_22  and  O_23 
REMARK    8  A    between atoms: C_25  and  C_26 
REMARK    9  A    between atoms: C_26  and  O_27 
ROOT
HETATM    1  O   UNK N   1      50.834  54.742  43.990  0.00  0.00    -0.348 OA
HETATM    2  C   UNK N   1      51.473  56.017  43.864  0.00  0.00     0.298 C 
HETATM    3  C   UNK N   1      51.469  56.933  45.118  0.00  0.00     0.205 C 
HETATM    4  C   UNK N   1      51.677  56.039  46.328  0.00  0.00     0.183 C 
HETATM    5  C   UNK N   1      50.489  55.057  46.436  0.00  0.00     0.180 C 
HETATM    6  C   UNK N   1      49.890  54.659  45.043  0.00  0.00     0.179 C 
ENDROOT
BRANCH   2   7
HETATM    7  O   UNK N   1      50.961  56.739  42.802  0.00  0.00    -0.317 OA
BRANCH   7   8
HETATM    8  C   UNK N   1      50.409  56.234  41.665  0.00  0.00     0.078 A 
HETATM    9  C   UNK N   1      49.181  56.769  41.212  0.00  0.00    -0.019 A 
HETATM   10  C   UNK N   1      48.615  56.319  39.973  0.00  0.00    -0.013 A 
HETATM   11  C   UNK N   1      48.500  57.834  42.051  0.00  0.00     0.052 C 
HETATM   12  C   UNK N   1      49.307  55.296  39.246  0.00  0.00     0.073 A 
HETATM   13  C   UNK N   1      50.500  54.772  39.744  0.00  0.00     0.040 A 
HETATM   14  C   UNK N   1      51.052  55.235  40.928  0.00  0.00     0.040 A 
BRANCH  10  15
HETATM   15  C   UNK N   1      47.310  56.960  39.453  0.00  0.00     0.014 C 
HETATM   16  C   UNK N   1      47.560  57.861  38.230  0.00  0.00     0.015 C 
HETATM   17  C   UNK N   1      46.180  55.941  39.241  0.00  0.00     0.015 C 
ENDBRANCH  10  15
BRANCH  12  18
HETATM   18  O   UNK N   1      48.875  54.792  38.068  0.00  0.00    -0.360 OA
HETATM   19  H   UNK N   1      48.083  54.268  37.935  0.00  0.00     0.217 HD
ENDBRANCH  12  18
ENDBRANCH   7   8
ENDBRANCH   2   7
BRANCH   3  20
HETATM   20  O   UNK N   1      52.503  57.876  44.980  0.00  0.00    -0.388 OA
HETATM   21  H   UNK N   1      52.096  58.720  44.654  0.00  0.00     0.210 HD
ENDBRANCH   3  20
BRANCH   6  22
HETATM   22  C   UNK N   1      48.591  55.396  44.649  0.00  0.00     0.198 C 
BRANCH  22  23
HETATM   23  O   UNK N   1      48.064  56.065  45.762  0.00  0.00    -0.398 OA
HETATM   24  H   UNK N   1      47.229  56.502  45.453  0.00  0.00     0.209 HD
ENDBRANCH  22  23
ENDBRANCH   6  22
BRANCH   4  25
HETATM   25  O   UNK N   1      51.790  56.806  47.500  0.00  0.00    -0.390 OA
HETATM   26  H   UNK N   1      51.561  56.212  48.260  0.00  0.00     0.210 HD
ENDBRANCH   4  25
BRANCH   5  27
HETATM   27  O   UNK N   1      50.950  53.921  47.123  0.00  0.00    -0.390 OA
HETATM   28  H   UNK N   1      50.221  53.247  47.091  0.00  0.00     0.210 HD
ENDBRANCH   5  27
TORSDOF 9
ENDMDL
MODEL 7
REMARK VINA RESULT:      -5.3     14.444     16.317
REMARK  9 active torsions:
REMARK  status: ('A' for Active; 'I' for Inactive)
REMARK    1  A    between atoms: C_2  and  O_3 
REMARK    2  A    between atoms: O_3  and  C_4 
REMARK    3  A    between atoms: C_6  and  C_12 
REMARK    4  A    between atoms: C_7  and  O_8 
REMARK    5  A    between atoms: C_16  and  O_17 
REMARK    6  A    between atoms: C_19  and  O_20 
REMARK    7  A    between atoms: C_22  and  O_23 
REMARK    8  A    between atoms: C_25  and  C_26 
REMARK    9  A    between atoms: C_26  and  O_27 
ROOT
HETATM    1  O   UNK N   1      49.899  54.365  39.855  0.00  0.00    -0.348 OA
HETATM    2  C   UNK N   1      49.539  55.190  40.968  0.00  0.00     0.298 C 
HETATM    3  C   UNK N   1      48.807  56.522  40.648  0.00  0.00     0.205 C 
HETATM    4  C   UNK N   1      47.850  56.245  39.502  0.00  0.00     0.183 C 
HETATM    5  C   UNK N   1      48.666  55.824  38.259  0.00  0.00     0.180 C 
HETATM    6  C   UNK N   1      49.980  55.049  38.617  0.00  0.00     0.179 C 
ENDROOT
BRANCH   2   7
HETATM    7  O   UNK N   1      50.634  55.480  41.761  0.00  0.00    -0.317 OA
BRANCH   7   8
HETATM    8  C   UNK N   1      50.685  55.453  43.120  0.00  0.00     0.078 A 
HETATM    9  C   UNK N   1      51.618  56.286  43.780  0.00  0.00    -0.019 A 
HETATM   10  C   UNK N   1      51.640  56.344  45.214  0.00  0.00    -0.013 A 
HETATM   11  C   UNK N   1      52.565  57.122  42.941  0.00  0.00     0.052 C 
HETATM   12  C   UNK N   1      50.726  55.510  45.938  0.00  0.00     0.073 A 
HETATM   13  C   UNK N   1      49.845  54.678  45.249  0.00  0.00     0.040 A 
HETATM   14  C   UNK N   1      49.813  54.651  43.863  0.00  0.00     0.040 A 
BRANCH  10  15
HETATM   15  C   UNK N   1      52.614  57.310  45.923  0.00  0.00     0.014 C 
HETATM   16  C   UNK N   1      51.876  58.484  46.590  0.00  0.00     0.015 C 
HETATM   17  C   UNK N   1      53.597  56.593  46.862  0.00  0.00     0.015 C 
ENDBRANCH  10  15
BRANCH  12  18
HETATM   18  O   UNK N   1      50.652  55.478  47.288  0.00  0.00    -0.360 OA
HETATM   19  H   UNK N   1      50.502  54.698  47.826  0.00  0.00     0.217 HD
ENDBRANCH  12  18
ENDBRANCH   7   8
ENDBRANCH   2   7
BRANCH   3  20
HETATM   20  O   UNK N   1      48.129  56.943  41.806  0.00  0.00    -0.388 OA
HETATM   21  H   UNK N   1      48.257  56.244  42.499  0.00  0.00     0.210 HD
ENDBRANCH   3  20
BRANCH   6  22
HETATM   22  C   UNK N   1      51.276  55.888  38.559  0.00  0.00     0.198 C 
BRANCH  22  23
HETATM   23  O   UNK N   1      52.317  55.204  39.200  0.00  0.00    -0.398 OA
HETATM   24  H   UNK N   1      53.161  55.598  38.857  0.00  0.00     0.209 HD
ENDBRANCH  22  23
ENDBRANCH   6  22
BRANCH   4  25
HETATM   25  O   UNK N   1      47.071  57.380  39.219  0.00  0.00    -0.390 OA
HETATM   26  H   UNK N   1      47.396  57.749  38.358  0.00  0.00     0.210 HD
ENDBRANCH   4  25
BRANCH   5  27
HETATM   27  O   UNK N   1      47.824  55.034  37.458  0.00  0.00    -0.390 OA
HETATM   28  H   UNK N   1      47.214  54.546  38.071  0.00  0.00     0.210 HD
ENDBRANCH   5  27
TORSDOF 9
ENDMDL
MODEL 8
REMARK VINA RESULT:      -4.8     12.861     14.686
REMARK  9 active torsions:
REMARK  status: ('A' for Active; 'I' for Inactive)
REMARK    1  A    between atoms: C_2  and  O_3 
REMARK    2  A    between atoms: O_3  and  C_4 
REMARK    3  A    between atoms: C_6  and  C_12 
REMARK    4  A    between atoms: C_7  and  O_8 
REMARK    5  A    between atoms: C_16  and  O_17 
REMARK    6  A    between atoms: C_19  and  O_20 
REMARK    7  A    between atoms: C_22  and  O_23 
REMARK    8  A    between atoms: C_25  and  C_26 
REMARK    9  A    between atoms: C_26  and  O_27 
ROOT
HETATM    1  O   UNK N   1      28.317  42.980  52.531  0.00  0.00    -0.348 OA
HETATM    2  C   UNK N   1      28.381  41.627  52.993  0.00  0.00     0.298 C 
HETATM    3  C   UNK N   1      27.206  40.692  52.596  0.00  0.00     0.205 C 
HETATM    4  C   UNK N   1      26.811  41.044  51.173  0.00  0.00     0.183 C 
HETATM    5  C   UNK N   1      26.308  42.505  51.139  0.00  0.00     0.180 C 
HETATM    6  C   UNK N   1      27.016  43.426  52.193  0.00  0.00     0.179 C 
ENDROOT
BRANCH   2   7
HETATM    7  O   UNK N   1      28.537  41.565  54.365  0.00  0.00    -0.317 OA
BRANCH   7   8
HETATM    8  C   UNK N   1      29.571  42.070  55.090  0.00  0.00     0.078 A 
HETATM    9  C   UNK N   1      29.283  42.781  56.278  0.00  0.00    -0.019 A 
HETATM   10  C   UNK N   1      30.352  43.253  57.110  0.00  0.00    -0.013 A 
HETATM   11  C   UNK N   1      27.830  43.007  56.654  0.00  0.00     0.052 C 
HETATM   12  C   UNK N   1      31.698  43.017  56.679  0.00  0.00     0.073 A 
HETATM   13  C   UNK N   1      31.940  42.341  55.484  0.00  0.00     0.040 A 
HETATM   14  C   UNK N   1      30.899  41.864  54.702  0.00  0.00     0.040 A 
BRANCH  10  15
HETATM   15  C   UNK N   1      30.025  43.967  58.441  0.00  0.00     0.014 C 
HETATM   16  C   UNK N   1      30.502  43.156  59.659  0.00  0.00     0.015 C 
HETATM   17  C   UNK N   1      30.481  45.434  58.466  0.00  0.00     0.015 C 
ENDBRANCH  10  15
BRANCH  12  18
HETATM   18  O   UNK N   1      32.787  43.412  57.377  0.00  0.00    -0.360 OA
HETATM   19  H   UNK N   1      33.351  42.848  57.909  0.00  0.00     0.217 HD
ENDBRANCH  12  18
ENDBRANCH   7   8
ENDBRANCH   2   7
BRANCH   3  20
HETATM   20  O   UNK N   1      27.644  39.360  52.704  0.00  0.00    -0.388 OA
HETATM   21  H   UNK N   1      28.283  39.316  53.462  0.00  0.00     0.210 HD
ENDBRANCH   3  20
BRANCH   6  22
HETATM   22  C   UNK N   1      26.202  43.706  53.475  0.00  0.00     0.198 C 
BRANCH  22  23
HETATM   23  O   UNK N   1      25.070  44.471  53.166  0.00  0.00    -0.398 OA
HETATM   24  H   UNK N   1      25.353  45.420  53.222  0.00  0.00     0.209 HD
ENDBRANCH  22  23
ENDBRANCH   6  22
BRANCH   4  25
HETATM   25  O   UNK N   1      25.818  40.170  50.701  0.00  0.00    -0.390 OA
HETATM   26  H   UNK N   1      25.013  40.315  51.261  0.00  0.00     0.210 HD
ENDBRANCH   4  25
BRANCH   5  27
HETATM   27  O   UNK N   1      26.517  42.987  49.836  0.00  0.00    -0.390 OA
HETATM   28  H   UNK N   1      27.149  43.750  49.907  0.00  0.00     0.210 HD
ENDBRANCH   5  27
TORSDOF 9
ENDMDL
MODEL 9
REMARK VINA RESULT:      -4.8     13.714     16.891
REMARK  9 active torsions:
REMARK  status: ('A' for Active; 'I' for Inactive)
REMARK    1  A    between atoms: C_2  and  O_3 
REMARK    2  A    between atoms: O_3  and  C_4 
REMARK    3  A    between atoms: C_6  and  C_12 
REMARK    4  A    between atoms: C_7  and  O_8 
REMARK    5  A    between atoms: C_16  and  O_17 
REMARK    6  A    between atoms: C_19  and  O_20 
REMARK    7  A    between atoms: C_22  and  O_23 
REMARK    8  A    between atoms: C_25  and  C_26 
REMARK    9  A    between atoms: C_26  and  O_27 
ROOT
HETATM    1  O   UNK N   1      30.043  49.538  59.476  0.00  0.00    -0.348 OA
HETATM    2  C   UNK N   1      29.623  48.681  58.409  0.00  0.00     0.298 C 
HETATM    3  C   UNK N   1      28.355  49.108  57.621  0.00  0.00     0.205 C 
HETATM    4  C   UNK N   1      28.405  50.619  57.474  0.00  0.00     0.183 C 
HETATM    5  C   UNK N   1      28.347  51.261  58.879  0.00  0.00     0.180 C 
HETATM    6  C   UNK N   1      29.026  50.383  59.986  0.00  0.00     0.179 C 
ENDROOT
BRANCH   2   7
HETATM    7  O   UNK N   1      29.443  47.381  58.843  0.00  0.00    -0.317 OA
BRANCH   7   8
HETATM    8  C   UNK N   1      30.290  46.334  58.650  0.00  0.00     0.078 A 
HETATM    9  C   UNK N   1      30.399  45.355  59.665  0.00  0.00    -0.019 A 
HETATM   10  C   UNK N   1      31.218  44.195  59.459  0.00  0.00    -0.013 A 
HETATM   11  C   UNK N   1      29.619  45.552  60.951  0.00  0.00     0.052 C 
HETATM   12  C   UNK N   1      31.940  44.088  58.225  0.00  0.00     0.073 A 
HETATM   13  C   UNK N   1      31.831  45.092  57.263  0.00  0.00     0.040 A 
HETATM   14  C   UNK N   1      31.014  46.194  57.462  0.00  0.00     0.040 A 
BRANCH  10  15
HETATM   15  C   UNK N   1      31.275  43.098  60.544  0.00  0.00     0.014 C 
HETATM   16  C   UNK N   1      30.674  41.770  60.051  0.00  0.00     0.015 C 
HETATM   17  C   UNK N   1      32.669  42.943  61.173  0.00  0.00     0.015 C 
ENDBRANCH  10  15
BRANCH  12  18
HETATM   18  O   UNK N   1      32.742  43.044  57.915  0.00  0.00    -0.360 OA
HETATM   19  H   UNK N   1      33.514  43.075  57.347  0.00  0.00     0.217 HD
ENDBRANCH  12  18
ENDBRANCH   7   8
ENDBRANCH   2   7
BRANCH   3  20
HETATM   20  O   UNK N   1      28.372  48.460  56.373  0.00  0.00    -0.388 OA
HETATM   21  H   UNK N   1      27.614  48.816  55.841  0.00  0.00     0.210 HD
ENDBRANCH   3  20
BRANCH   6  22
HETATM   22  C   UNK N   1      28.055  49.570  60.870  0.00  0.00     0.198 C 
BRANCH  22  23
HETATM   23  O   UNK N   1      28.777  48.723  61.721  0.00  0.00    -0.398 OA
HETATM   24  H   UNK N   1      28.106  48.251  62.278  0.00  0.00     0.209 HD
ENDBRANCH  22  23
ENDBRANCH   6  22
BRANCH   4  25
HETATM   25  O   UNK N   1      27.341  51.077  56.679  0.00  0.00    -0.390 OA
HETATM   26  H   UNK N   1      26.645  50.371  56.689  0.00  0.00     0.210 HD
ENDBRANCH   4  25
BRANCH   5  27
HETATM   27  O   UNK N   1      28.969  52.517  58.788  0.00  0.00    -0.390 OA
HETATM   28  H   UNK N   1      29.518  52.629  59.608  0.00  0.00     0.210 HD
ENDBRANCH   5  27
TORSDOF 9
ENDMDL
