MODEL 1
REMARK VINA RESULT:      -6.3      0.000      0.000
REMARK  2 active torsions:
REMARK  status: ('A' for Active; 'I' for Inactive)
REMARK    1  A    between atoms: C_8  and  C_14 
REMARK    2  A    between atoms: C_9  and  O_10 
ROOT
HETATM    1  O   UNK N   1      34.211  51.682  46.251  0.00  0.00    -0.297 OA
HETATM    2  C   UNK N   1      33.899  52.174  45.176  0.00  0.00     0.135 C 
HETATM    3  C   UNK N   1      33.326  51.312  44.062  0.00  0.00     0.018 C 
HETATM    4  C   UNK N   1      32.027  51.990  43.411  0.00  0.00     0.013 C 
HETATM    5  C   UNK N   1      31.867  53.539  43.706  0.00  0.00    -0.011 C 
HETATM    6  C   UNK N   1      30.984  54.289  42.674  0.00  0.00    -0.042 A 
HETATM    7  C   UNK N   1      30.375  53.643  41.559  0.00  0.00    -0.042 A 
HETATM    8  C   UNK N   1      29.476  54.375  40.711  0.00  0.00    -0.015 A 
HETATM    9  C   UNK N   1      29.268  55.754  40.967  0.00  0.00     0.072 A 
HETATM   10  C   UNK N   1      29.906  56.376  42.036  0.00  0.00     0.037 A 
HETATM   11  C   UNK N   1      30.736  55.660  42.881  0.00  0.00     0.011 A 
HETATM   12  C   UNK N   1      30.658  52.181  41.293  0.00  0.00     0.040 C 
HETATM   13  C   UNK N   1      31.964  51.713  41.906  0.00  0.00     0.011 C 
HETATM   14  C   UNK N   1      33.286  54.183  43.758  0.00  0.00     0.022 C 
HETATM   15  C   UNK N   1      34.088  53.656  44.966  0.00  0.00     0.080 C 
HETATM   16  C   UNK N   1      31.130  53.677  45.080  0.00  0.00     0.021 C 
HETATM   17  C   UNK N   1      34.514  51.122  43.071  0.00  0.00     0.023 C 
HETATM   18  C   UNK N   1      32.948  49.905  44.583  0.00  0.00     0.023 C 
ENDROOT
BRANCH   8  19
HETATM   19  C   UNK N   1      28.734  53.696  39.544  0.00  0.00     0.014 C 
HETATM   20  C   UNK N   1      27.971  52.441  39.995  0.00  0.00     0.015 C 
HETATM   21  C   UNK N   1      29.688  53.389  38.382  0.00  0.00     0.015 C 
ENDBRANCH   8  19
BRANCH   9  22
HETATM   22  O   UNK N   1      28.450  56.486  40.180  0.00  0.00    -0.360 OA
HETATM   23  H   UNK N   1      27.498  56.318  40.130  0.00  0.00     0.217 HD
ENDBRANCH   9  22
TORSDOF 2
ENDMDL
MODEL 2
REMARK VINA RESULT:      -5.8     15.400     18.083
REMARK  2 active torsions:
REMARK  status: ('A' for Active; 'I' for Inactive)
REMARK    1  A    between atoms: C_8  and  C_14 
REMARK    2  A    between atoms: C_9  and  O_10 
ROOT
HETATM    1  O   UNK N   1      29.969  42.393  61.538  0.00  0.00    -0.297 OA
HETATM    2  C   UNK N   1      30.406  43.451  61.109  0.00  0.00     0.135 C 
HETATM    3  C   UNK N   1      30.717  43.624  59.630  0.00  0.00     0.018 C 
HETATM    4  C   UNK N   1      30.120  45.000  59.066  0.00  0.00     0.013 C 
HETATM    5  C   UNK N   1      29.752  46.070  60.177  0.00  0.00    -0.011 C 
HETATM    6  C   UNK N   1      29.716  47.531  59.657  0.00  0.00    -0.042 A 
HETATM    7  C   UNK N   1      29.992  47.880  58.303  0.00  0.00    -0.042 A 
HETATM    8  C   UNK N   1      29.826  49.238  57.865  0.00  0.00    -0.015 A 
HETATM    9  C   UNK N   1      29.452  50.220  58.817  0.00  0.00     0.072 A 
HETATM   10  C   UNK N   1      29.229  49.866  60.144  0.00  0.00     0.037 A 
HETATM   11  C   UNK N   1      29.344  48.550  60.556  0.00  0.00     0.011 A 
HETATM   12  C   UNK N   1      30.432  46.811  57.328  0.00  0.00     0.040 C 
HETATM   13  C   UNK N   1      31.052  45.608  58.014  0.00  0.00     0.011 C 
HETATM   14  C   UNK N   1      30.779  45.947  61.343  0.00  0.00     0.022 C 
HETATM   15  C   UNK N   1      30.632  44.594  62.069  0.00  0.00     0.080 C 
HETATM   16  C   UNK N   1      28.299  45.753  60.665  0.00  0.00     0.021 C 
HETATM   17  C   UNK N   1      32.270  43.517  59.548  0.00  0.00     0.023 C 
HETATM   18  C   UNK N   1      30.143  42.452  58.800  0.00  0.00     0.023 C 
ENDROOT
BRANCH   8  19
HETATM   19  C   UNK N   1      30.035  49.644  56.393  0.00  0.00     0.014 C 
HETATM   20  C   UNK N   1      31.351  50.409  56.185  0.00  0.00     0.015 C 
HETATM   21  C   UNK N   1      28.832  50.433  55.858  0.00  0.00     0.015 C 
ENDBRANCH   8  19
BRANCH   9  22
HETATM   22  O   UNK N   1      29.308  51.514  58.454  0.00  0.00    -0.360 OA
HETATM   23  H   UNK N   1      30.067  52.103  58.337  0.00  0.00     0.217 HD
ENDBRANCH   9  22
TORSDOF 2
ENDMDL
MODEL 3
REMARK VINA RESULT:      -5.4     15.864     18.109
REMARK  2 active torsions:
REMARK  status: ('A' for Active; 'I' for Inactive)
REMARK    1  A    between atoms: C_8  and  C_14 
REMARK    2  A    between atoms: C_9  and  O_10 
ROOT
HETATM    1  O   UNK N   1      26.280  39.946  51.851  0.00  0.00    -0.297 OA
HETATM    2  C   UNK N   1      26.868  40.853  52.424  0.00  0.00     0.135 C 
HETATM    3  C   UNK N   1      26.269  41.514  53.655  0.00  0.00     0.018 C 
HETATM    4  C   UNK N   1      27.356  41.657  54.826  0.00  0.00     0.013 C 
HETATM    5  C   UNK N   1      28.863  41.524  54.353  0.00  0.00    -0.011 C 
HETATM    6  C   UNK N   1      29.885  42.192  55.311  0.00  0.00    -0.042 A 
HETATM    7  C   UNK N   1      29.501  42.866  56.507  0.00  0.00    -0.042 A 
HETATM    8  C   UNK N   1      30.508  43.359  57.405  0.00  0.00    -0.015 A 
HETATM    9  C   UNK N   1      31.872  43.220  57.042  0.00  0.00     0.072 A 
HETATM   10  C   UNK N   1      32.224  42.596  55.850  0.00  0.00     0.037 A 
HETATM   11  C   UNK N   1      31.255  42.080  55.006  0.00  0.00     0.011 A 
HETATM   12  C   UNK N   1      28.035  43.035  56.835  0.00  0.00     0.040 C 
HETATM   13  C   UNK N   1      27.144  42.955  55.610  0.00  0.00     0.011 C 
HETATM   14  C   UNK N   1      28.991  42.142  52.927  0.00  0.00     0.022 C 
HETATM   15  C   UNK N   1      28.203  41.310  51.893  0.00  0.00     0.080 C 
HETATM   16  C   UNK N   1      29.215  39.999  54.345  0.00  0.00     0.021 C 
HETATM   17  C   UNK N   1      25.708  42.871  53.132  0.00  0.00     0.023 C 
HETATM   18  C   UNK N   1      25.062  40.708  54.190  0.00  0.00     0.023 C 
ENDROOT
BRANCH   8  19
HETATM   19  C   UNK N   1      30.140  44.022  58.746  0.00  0.00     0.014 C 
HETATM   20  C   UNK N   1      30.525  45.509  58.783  0.00  0.00     0.015 C 
HETATM   21  C   UNK N   1      30.743  43.253  59.930  0.00  0.00     0.015 C 
ENDBRANCH   8  19
BRANCH   9  22
HETATM   22  O   UNK N   1      32.851  43.690  57.846  0.00  0.00    -0.360 OA
HETATM   23  H   UNK N   1      33.789  43.542  57.656  0.00  0.00     0.217 HD
ENDBRANCH   9  22
TORSDOF 2
ENDMDL
MODEL 4
REMARK VINA RESULT:      -5.2     16.997     19.567
REMARK  2 active torsions:
REMARK  status: ('A' for Active; 'I' for Inactive)
REMARK    1  A    between atoms: C_8  and  C_14 
REMARK    2  A    between atoms: C_9  and  O_10 
ROOT
HETATM    1  O   UNK N   1      26.780  49.671  59.649  0.00  0.00    -0.297 OA
HETATM    2  C   UNK N   1      27.883  49.147  59.706  0.00  0.00     0.135 C 
HETATM    3  C   UNK N   1      28.332  48.410  60.959  0.00  0.00     0.018 C 
HETATM    4  C   UNK N   1      28.978  46.988  60.598  0.00  0.00     0.013 C 
HETATM    5  C   UNK N   1      29.428  46.827  59.086  0.00  0.00    -0.011 C 
HETATM    6  C   UNK N   1      30.513  45.740  58.864  0.00  0.00    -0.042 A 
HETATM    7  C   UNK N   1      31.057  44.959  59.925  0.00  0.00    -0.042 A 
HETATM    8  C   UNK N   1      31.972  43.891  59.632  0.00  0.00    -0.015 A 
HETATM    9  C   UNK N   1      32.367  43.683  58.286  0.00  0.00     0.072 A 
HETATM   10  C   UNK N   1      31.856  44.484  57.270  0.00  0.00     0.037 A 
HETATM   11  C   UNK N   1      30.939  45.483  57.547  0.00  0.00     0.011 A 
HETATM   12  C   UNK N   1      30.646  45.243  61.353  0.00  0.00     0.040 C 
HETATM   13  C   UNK N   1      30.133  46.657  61.547  0.00  0.00     0.011 C 
HETATM   14  C   UNK N   1      29.946  48.205  58.574  0.00  0.00     0.022 C 
HETATM   15  C   UNK N   1      28.800  49.237  58.512  0.00  0.00     0.080 C 
HETATM   16  C   UNK N   1      28.175  46.354  58.276  0.00  0.00     0.021 C 
HETATM   17  C   UNK N   1      29.310  49.400  61.659  0.00  0.00     0.023 C 
HETATM   18  C   UNK N   1      27.148  48.189  61.930  0.00  0.00     0.023 C 
ENDROOT
BRANCH   8  19
HETATM   19  C   UNK N   1      32.522  42.971  60.739  0.00  0.00     0.014 C 
HETATM   20  C   UNK N   1      34.052  43.047  60.848  0.00  0.00     0.015 C 
HETATM   21  C   UNK N   1      32.040  41.526  60.551  0.00  0.00     0.015 C 
ENDBRANCH   8  19
BRANCH   9  22
HETATM   22  O   UNK N   1      33.244  42.705  57.968  0.00  0.00    -0.360 OA
HETATM   23  H   UNK N   1      32.991  41.771  57.957  0.00  0.00     0.217 HD
ENDBRANCH   9  22
TORSDOF 2
ENDMDL
MODEL 5
REMARK VINA RESULT:      -5.0      1.668      3.551
REMARK  2 active torsions:
REMARK  status: ('A' for Active; 'I' for Inactive)
REMARK    1  A    between atoms: C_8  and  C_14 
REMARK    2  A    between atoms: C_9  and  O_10 
ROOT
HETATM    1  O   UNK N   1      33.748  48.488  42.836  0.00  0.00    -0.297 OA
HETATM    2  C   UNK N   1      32.781  49.237  42.837  0.00  0.00     0.135 C 
HETATM    3  C   UNK N   1      32.828  50.569  43.568  0.00  0.00     0.018 C 
HETATM    4  C   UNK N   1      32.257  51.756  42.652  0.00  0.00     0.013 C 
HETATM    5  C   UNK N   1      31.377  51.281  41.422  0.00  0.00    -0.011 C 
HETATM    6  C   UNK N   1      30.401  52.363  40.891  0.00  0.00    -0.042 A 
HETATM    7  C   UNK N   1      30.302  53.666  41.462  0.00  0.00    -0.042 A 
HETATM    8  C   UNK N   1      29.461  54.656  40.846  0.00  0.00    -0.015 A 
HETATM    9  C   UNK N   1      28.690  54.286  39.715  0.00  0.00     0.072 A 
HETATM   10  C   UNK N   1      28.769  52.996  39.199  0.00  0.00     0.037 A 
HETATM   11  C   UNK N   1      29.614  52.057  39.764  0.00  0.00     0.011 A 
HETATM   12  C   UNK N   1      31.106  54.007  42.697  0.00  0.00     0.040 C 
HETATM   13  C   UNK N   1      31.499  52.782  43.499  0.00  0.00     0.011 C 
HETATM   14  C   UNK N   1      30.581  50.009  41.843  0.00  0.00     0.022 C 
HETATM   15  C   UNK N   1      31.532  48.821  42.099  0.00  0.00     0.080 C 
HETATM   16  C   UNK N   1      32.357  50.972  40.241  0.00  0.00     0.021 C 
HETATM   17  C   UNK N   1      32.017  50.322  44.875  0.00  0.00     0.023 C 
HETATM   18  C   UNK N   1      34.272  50.919  43.997  0.00  0.00     0.023 C 
ENDROOT
BRANCH   8  19
HETATM   19  C   UNK N   1      29.387  56.098  41.382  0.00  0.00     0.014 C 
HETATM   20  C   UNK N   1      27.992  56.443  41.927  0.00  0.00     0.015 C 
HETATM   21  C   UNK N   1      29.844  57.109  40.321  0.00  0.00     0.015 C 
ENDBRANCH   8  19
BRANCH   9  22
HETATM   22  O   UNK N   1      27.868  55.178  39.119  0.00  0.00    -0.360 OA
HETATM   23  H   UNK N   1      28.197  55.998  38.726  0.00  0.00     0.217 HD
ENDBRANCH   9  22
TORSDOF 2
ENDMDL
MODEL 6
REMARK VINA RESULT:      -4.9     16.463     19.624
REMARK  2 active torsions:
REMARK  status: ('A' for Active; 'I' for Inactive)
REMARK    1  A    between atoms: C_8  and  C_14 
REMARK    2  A    between atoms: C_9  and  O_10 
ROOT
HETATM    1  O   UNK N   1      27.917  40.341  52.304  0.00  0.00    -0.297 OA
HETATM    2  C   UNK N   1      27.947  40.753  53.454  0.00  0.00     0.135 C 
HETATM    3  C   UNK N   1      27.898  39.789  54.629  0.00  0.00     0.018 C 
HETATM    4  C   UNK N   1      29.015  40.146  55.722  0.00  0.00     0.013 C 
HETATM    5  C   UNK N   1      29.609  41.612  55.611  0.00  0.00    -0.011 C 
HETATM    6  C   UNK N   1      30.232  42.140  56.929  0.00  0.00    -0.042 A 
HETATM    7  C   UNK N   1      30.265  41.377  58.133  0.00  0.00    -0.042 A 
HETATM    8  C   UNK N   1      30.962  41.883  59.283  0.00  0.00    -0.015 A 
HETATM    9  C   UNK N   1      31.548  43.172  59.212  0.00  0.00     0.072 A 
HETATM   10  C   UNK N   1      31.468  43.919  58.041  0.00  0.00     0.037 A 
HETATM   11  C   UNK N   1      30.836  43.413  56.919  0.00  0.00     0.011 A 
HETATM   12  C   UNK N   1      29.589  40.025  58.182  0.00  0.00     0.040 C 
HETATM   13  C   UNK N   1      28.499  39.874  57.138  0.00  0.00     0.011 C 
HETATM   14  C   UNK N   1      28.474  42.572  55.139  0.00  0.00     0.022 C 
HETATM   15  C   UNK N   1      28.035  42.239  53.698  0.00  0.00     0.080 C 
HETATM   16  C   UNK N   1      30.780  41.562  54.573  0.00  0.00     0.021 C 
HETATM   17  C   UNK N   1      26.434  39.891  55.152  0.00  0.00     0.023 C 
HETATM   18  C   UNK N   1      28.105  38.329  54.161  0.00  0.00     0.023 C 
ENDROOT
BRANCH   8  19
HETATM   19  C   UNK N   1      31.091  41.056  60.577  0.00  0.00     0.014 C 
HETATM   20  C   UNK N   1      31.849  39.739  60.350  0.00  0.00     0.015 C 
HETATM   21  C   UNK N   1      29.719  40.815  61.221  0.00  0.00     0.015 C 
ENDBRANCH   8  19
BRANCH   9  22
HETATM   22  O   UNK N   1      32.192  43.697  60.278  0.00  0.00    -0.360 OA
HETATM   23  H   UNK N   1      32.120  43.312  61.163  0.00  0.00     0.217 HD
ENDBRANCH   9  22
TORSDOF 2
ENDMDL
MODEL 7
REMARK VINA RESULT:      -4.7     15.850     18.729
REMARK  2 active torsions:
REMARK  status: ('A' for Active; 'I' for Inactive)
REMARK    1  A    between atoms: C_8  and  C_14 
REMARK    2  A    between atoms: C_9  and  O_10 
ROOT
HETATM    1  O   UNK N   1      27.486  51.477  59.659  0.00  0.00    -0.297 OA
HETATM    2  C   UNK N   1      27.611  50.309  59.318  0.00  0.00     0.135 C 
HETATM    3  C   UNK N   1      28.533  49.927  58.171  0.00  0.00     0.018 C 
HETATM    4  C   UNK N   1      29.462  48.680  58.561  0.00  0.00     0.013 C 
HETATM    5  C   UNK N   1      28.957  47.839  59.807  0.00  0.00    -0.011 C 
HETATM    6  C   UNK N   1      29.493  46.384  59.843  0.00  0.00    -0.042 A 
HETATM    7  C   UNK N   1      30.359  45.850  58.844  0.00  0.00    -0.042 A 
HETATM    8  C   UNK N   1      30.910  44.533  59.002  0.00  0.00    -0.015 A 
HETATM    9  C   UNK N   1      30.520  43.762  60.127  0.00  0.00     0.072 A 
HETATM   10  C   UNK N   1      29.640  44.285  61.069  0.00  0.00     0.037 A 
HETATM   11  C   UNK N   1      29.145  45.572  60.940  0.00  0.00     0.011 A 
HETATM   12  C   UNK N   1      30.714  46.687  57.636  0.00  0.00     0.040 C 
HETATM   13  C   UNK N   1      29.694  47.772  57.350  0.00  0.00     0.011 C 
HETATM   14  C   UNK N   1      27.398  47.830  59.799  0.00  0.00     0.022 C 
HETATM   15  C   UNK N   1      26.837  49.244  60.055  0.00  0.00     0.080 C 
HETATM   16  C   UNK N   1      29.515  48.533  61.094  0.00  0.00     0.021 C 
HETATM   17  C   UNK N   1      27.570  49.659  56.975  0.00  0.00     0.023 C 
HETATM   18  C   UNK N   1      29.435  51.114  57.761  0.00  0.00     0.023 C 
ENDROOT
BRANCH   8  19
HETATM   19  C   UNK N   1      31.913  43.949  57.988  0.00  0.00     0.014 C 
HETATM   20  C   UNK N   1      31.249  42.953  57.026  0.00  0.00     0.015 C 
HETATM   21  C   UNK N   1      33.123  43.327  58.699  0.00  0.00     0.015 C 
ENDBRANCH   8  19
BRANCH   9  22
HETATM   22  O   UNK N   1      30.995  42.509  60.303  0.00  0.00    -0.360 OA
HETATM   23  H   UNK N   1      31.917  42.279  60.124  0.00  0.00     0.217 HD
ENDBRANCH   9  22
TORSDOF 2
ENDMDL
MODEL 8
REMARK VINA RESULT:      -4.7     15.672     19.590
REMARK  2 active torsions:
REMARK  status: ('A' for Active; 'I' for Inactive)
REMARK    1  A    between atoms: C_8  and  C_14 
REMARK    2  A    between atoms: C_9  and  O_10 
ROOT
HETATM    1  O   UNK N   1      27.602  43.727  52.345  0.00  0.00    -0.297 OA
HETATM    2  C   UNK N   1      27.412  42.773  53.084  0.00  0.00     0.135 C 
HETATM    3  C   UNK N   1      27.514  41.349  52.561  0.00  0.00     0.018 C 
HETATM    4  C   UNK N   1      28.386  40.429  53.542  0.00  0.00     0.013 C 
HETATM    5  C   UNK N   1      28.571  41.008  55.007  0.00  0.00    -0.011 C 
HETATM    6  C   UNK N   1      28.902  39.931  56.073  0.00  0.00    -0.042 A 
HETATM    7  C   UNK N   1      29.026  38.545  55.764  0.00  0.00    -0.042 A 
HETATM    8  C   UNK N   1      29.450  37.620  56.778  0.00  0.00    -0.015 A 
HETATM    9  C   UNK N   1      29.671  38.105  58.093  0.00  0.00     0.072 A 
HETATM   10  C   UNK N   1      29.503  39.454  58.383  0.00  0.00     0.037 A 
HETATM   11  C   UNK N   1      29.139  40.353  57.396  0.00  0.00     0.011 A 
HETATM   12  C   UNK N   1      28.737  38.061  54.360  0.00  0.00     0.040 C 
HETATM   13  C   UNK N   1      27.832  39.002  53.588  0.00  0.00     0.011 C 
HETATM   14  C   UNK N   1      27.269  41.768  55.407  0.00  0.00     0.022 C 
HETATM   15  C   UNK N   1      27.073  43.024  54.533  0.00  0.00     0.080 C 
HETATM   16  C   UNK N   1      29.804  41.972  54.973  0.00  0.00     0.021 C 
HETATM   17  C   UNK N   1      26.034  40.889  52.398  0.00  0.00     0.023 C 
HETATM   18  C   UNK N   1      28.150  41.318  51.151  0.00  0.00     0.023 C 
ENDROOT
BRANCH   8  19
HETATM   19  C   UNK N   1      29.674  36.128  56.467  0.00  0.00     0.014 C 
HETATM   20  C   UNK N   1      30.790  35.914  55.433  0.00  0.00     0.015 C 
HETATM   21  C   UNK N   1      28.368  35.447  56.037  0.00  0.00     0.015 C 
ENDBRANCH   8  19
BRANCH   9  22
HETATM   22  O   UNK N   1      30.047  37.265  59.083  0.00  0.00    -0.360 OA
HETATM   23  H   UNK N   1      30.021  36.304  58.979  0.00  0.00     0.217 HD
ENDBRANCH   9  22
TORSDOF 2
ENDMDL
MODEL 9
REMARK VINA RESULT:      -4.6     15.644     18.795
REMARK  2 active torsions:
REMARK  status: ('A' for Active; 'I' for Inactive)
REMARK    1  A    between atoms: C_8  and  C_14 
REMARK    2  A    between atoms: C_9  and  O_10 
ROOT
HETATM    1  O   UNK N   1      28.615  36.041  58.144  0.00  0.00    -0.297 OA
HETATM    2  C   UNK N   1      28.649  36.533  57.025  0.00  0.00     0.135 C 
HETATM    3  C   UNK N   1      27.380  36.686  56.203  0.00  0.00     0.018 C 
HETATM    4  C   UNK N   1      27.277  38.150  55.557  0.00  0.00     0.013 C 
HETATM    5  C   UNK N   1      28.644  38.952  55.509  0.00  0.00    -0.011 C 
HETATM    6  C   UNK N   1      28.681  40.070  54.434  0.00  0.00    -0.042 A 
HETATM    7  C   UNK N   1      27.585  40.348  53.565  0.00  0.00    -0.042 A 
HETATM    8  C   UNK N   1      27.645  41.473  52.673  0.00  0.00    -0.015 A 
HETATM    9  C   UNK N   1      28.833  42.246  52.631  0.00  0.00     0.072 A 
HETATM   10  C   UNK N   1      29.908  41.932  53.457  0.00  0.00     0.037 A 
HETATM   11  C   UNK N   1      29.833  40.876  54.349  0.00  0.00     0.011 A 
HETATM   12  C   UNK N   1      26.353  39.471  53.609  0.00  0.00     0.040 C 
HETATM   13  C   UNK N   1      26.633  38.090  54.170  0.00  0.00     0.011 C 
HETATM   14  C   UNK N   1      29.804  37.940  55.262  0.00  0.00     0.022 C 
HETATM   15  C   UNK N   1      29.974  36.990  56.466  0.00  0.00     0.080 C 
HETATM   16  C   UNK N   1      28.807  39.677  56.886  0.00  0.00     0.021 C 
HETATM   17  C   UNK N   1      27.453  35.530  55.161  0.00  0.00     0.023 C 
HETATM   18  C   UNK N   1      26.122  36.432  57.066  0.00  0.00     0.023 C 
ENDROOT
BRANCH   8  19
HETATM   19  C   UNK N   1      26.453  41.857  51.777  0.00  0.00     0.014 C 
HETATM   20  C   UNK N   1      26.703  41.512  50.301  0.00  0.00     0.015 C 
HETATM   21  C   UNK N   1      26.077  43.335  51.955  0.00  0.00     0.015 C 
ENDBRANCH   8  19
BRANCH   9  22
HETATM   22  O   UNK N   1      28.942  43.298  51.790  0.00  0.00    -0.360 OA
HETATM   23  H   UNK N   1      28.857  44.212  52.096  0.00  0.00     0.217 HD
ENDBRANCH   9  22
TORSDOF 2
ENDMDL
