MODEL 1
REMARK VINA RESULT:      -6.6      0.000      0.000
REMARK  3 active torsions:
REMARK  status: ('A' for Active; 'I' for Inactive)
REMARK    1  A    between atoms: O_1  and  C_2 
REMARK    2  A    between atoms: C_3  and  C_21 
REMARK    3  A    between atoms: C_9  and  O_10 
ROOT
HETATM    1  C   UNK N   1      32.367  52.923  44.288  0.00  0.00     0.072 A 
HETATM    2  C   UNK N   1      32.215  52.038  43.191  0.00  0.00    -0.015 A 
HETATM    3  C   UNK N   1      31.356  52.426  42.104  0.00  0.00    -0.042 A 
HETATM    4  C   UNK N   1      30.750  53.717  42.102  0.00  0.00    -0.042 A 
HETATM    5  C   UNK N   1      29.915  54.256  40.903  0.00  0.00    -0.012 C 
HETATM    6  C   UNK N   1      29.638  53.168  39.763  0.00  0.00     0.009 C 
HETATM    7  C   UNK N   1      28.262  53.325  38.939  0.00  0.00    -0.017 C 
HETATM    8  C   UNK N   1      27.876  54.821  38.876  0.00  0.00     0.126 C 
HETATM    9  C   UNK N   1      27.690  55.435  40.288  0.00  0.00     0.033 C 
HETATM   10  C   UNK N   1      28.552  54.791  41.400  0.00  0.00     0.017 C 
HETATM   11  C   UNK N   1      27.058  52.517  39.523  0.00  0.00     0.018 C 
HETATM   12  C   UNK N   1      28.487  52.799  37.498  0.00  0.00     0.018 C 
HETATM   13  C   UNK N   1      29.762  51.739  40.304  0.00  0.00     0.011 C 
HETATM   14  C   UNK N   1      31.116  51.495  40.940  0.00  0.00     0.040 C 
HETATM   15  C   UNK N   1      30.774  55.423  40.325  0.00  0.00     0.021 C 
HETATM   16  C   UNK N   1      30.962  54.563  43.210  0.00  0.00     0.011 A 
HETATM   17  C   UNK N   1      31.734  54.162  44.287  0.00  0.00     0.037 A 
ENDROOT
BRANCH   2  18
HETATM   18  C   UNK N   1      32.989  50.705  43.177  0.00  0.00     0.014 C 
HETATM   19  C   UNK N   1      32.429  49.692  44.186  0.00  0.00     0.015 C 
HETATM   20  C   UNK N   1      34.492  50.942  43.389  0.00  0.00     0.015 C 
ENDBRANCH   2  18
BRANCH   1  21
HETATM   21  O   UNK N   1      33.134  52.584  45.347  0.00  0.00    -0.360 OA
HETATM   22  H   UNK N   1      33.726  51.819  45.329  0.00  0.00     0.217 HD
ENDBRANCH   1  21
BRANCH   8  23
HETATM   23  O   UNK N   1      26.715  55.028  38.107  0.00  0.00    -0.395 OA
HETATM   24  H   UNK N   1      26.842  54.541  37.251  0.00  0.00     0.210 HD
ENDBRANCH   8  23
TORSDOF 3
ENDMDL
MODEL 2
REMARK VINA RESULT:      -6.2      1.319      6.360
REMARK  3 active torsions:
REMARK  status: ('A' for Active; 'I' for Inactive)
REMARK    1  A    between atoms: O_1  and  C_2 
REMARK    2  A    between atoms: C_3  and  C_21 
REMARK    3  A    between atoms: C_9  and  O_10 
ROOT
HETATM    1  C   UNK N   1      29.804  55.621  40.054  0.00  0.00     0.072 A 
HETATM    2  C   UNK N   1      29.819  54.204  40.064  0.00  0.00    -0.015 A 
HETATM    3  C   UNK N   1      30.521  53.528  41.122  0.00  0.00    -0.042 A 
HETATM    4  C   UNK N   1      31.106  54.282  42.182  0.00  0.00    -0.042 A 
HETATM    5  C   UNK N   1      31.769  53.617  43.425  0.00  0.00    -0.012 C 
HETATM    6  C   UNK N   1      31.904  52.027  43.316  0.00  0.00     0.009 C 
HETATM    7  C   UNK N   1      33.157  51.359  44.080  0.00  0.00    -0.017 C 
HETATM    8  C   UNK N   1      33.514  52.216  45.316  0.00  0.00     0.126 C 
HETATM    9  C   UNK N   1      33.878  53.673  44.930  0.00  0.00     0.033 C 
HETATM   10  C   UNK N   1      33.179  54.206  43.657  0.00  0.00     0.017 C 
HETATM   11  C   UNK N   1      34.436  51.184  43.200  0.00  0.00     0.018 C 
HETATM   12  C   UNK N   1      32.748  49.938  44.549  0.00  0.00     0.018 C 
HETATM   13  C   UNK N   1      31.870  51.555  41.858  0.00  0.00     0.011 C 
HETATM   14  C   UNK N   1      30.615  52.021  41.148  0.00  0.00     0.040 C 
HETATM   15  C   UNK N   1      30.827  53.989  44.612  0.00  0.00     0.021 C 
HETATM   16  C   UNK N   1      31.034  55.689  42.128  0.00  0.00     0.011 A 
HETATM   17  C   UNK N   1      30.416  56.340  41.074  0.00  0.00     0.037 A 
ENDROOT
BRANCH   2  18
HETATM   18  C   UNK N   1      29.066  53.428  38.966  0.00  0.00     0.014 C 
HETATM   19  C   UNK N   1      29.610  53.722  37.561  0.00  0.00     0.015 C 
HETATM   20  C   UNK N   1      27.553  53.687  39.051  0.00  0.00     0.015 C 
ENDBRANCH   2  18
BRANCH   1  21
HETATM   21  O   UNK N   1      29.188  56.297  39.059  0.00  0.00    -0.360 OA
HETATM   22  H   UNK N   1      29.094  57.261  39.072  0.00  0.00     0.217 HD
ENDBRANCH   1  21
BRANCH   8  23
HETATM   23  O   UNK N   1      34.559  51.642  46.064  0.00  0.00    -0.395 OA
HETATM   24  H   UNK N   1      35.369  51.654  45.489  0.00  0.00     0.210 HD
ENDBRANCH   8  23
TORSDOF 3
ENDMDL
MODEL 3
REMARK VINA RESULT:      -5.6     16.120     20.082
REMARK  3 active torsions:
REMARK  status: ('A' for Active; 'I' for Inactive)
REMARK    1  A    between atoms: O_1  and  C_2 
REMARK    2  A    between atoms: C_3  and  C_21 
REMARK    3  A    between atoms: C_9  and  O_10 
ROOT
HETATM    1  C   UNK N   1      29.599  49.703  59.120  0.00  0.00     0.072 A 
HETATM    2  C   UNK N   1      29.845  48.704  58.147  0.00  0.00    -0.015 A 
HETATM    3  C   UNK N   1      30.028  47.345  58.582  0.00  0.00    -0.042 A 
HETATM    4  C   UNK N   1      29.871  47.012  59.960  0.00  0.00    -0.042 A 
HETATM    5  C   UNK N   1      29.926  45.547  60.487  0.00  0.00    -0.012 C 
HETATM    6  C   UNK N   1      30.364  44.476  59.382  0.00  0.00     0.009 C 
HETATM    7  C   UNK N   1      31.160  43.180  59.914  0.00  0.00    -0.017 C 
HETATM    8  C   UNK N   1      30.703  42.859  61.356  0.00  0.00     0.126 C 
HETATM    9  C   UNK N   1      30.960  44.042  62.326  0.00  0.00     0.033 C 
HETATM   10  C   UNK N   1      30.910  45.445  61.674  0.00  0.00     0.017 C 
HETATM   11  C   UNK N   1      32.716  43.322  59.897  0.00  0.00     0.018 C 
HETATM   12  C   UNK N   1      30.818  41.979  58.995  0.00  0.00     0.018 C 
HETATM   13  C   UNK N   1      31.141  45.132  58.235  0.00  0.00     0.011 C 
HETATM   14  C   UNK N   1      30.349  46.253  57.590  0.00  0.00     0.040 C 
HETATM   15  C   UNK N   1      28.471  45.252  60.965  0.00  0.00     0.021 C 
HETATM   16  C   UNK N   1      29.599  48.049  60.876  0.00  0.00     0.011 A 
HETATM   17  C   UNK N   1      29.490  49.366  60.465  0.00  0.00     0.037 A 
ENDROOT
BRANCH   2  18
HETATM   18  C   UNK N   1      29.882  49.089  56.654  0.00  0.00     0.014 C 
HETATM   19  C   UNK N   1      31.091  49.969  56.306  0.00  0.00     0.015 C 
HETATM   20  C   UNK N   1      28.562  49.747  56.225  0.00  0.00     0.015 C 
ENDBRANCH   2  18
BRANCH   1  21
HETATM   21  O   UNK N   1      29.457  50.998  58.760  0.00  0.00    -0.360 OA
HETATM   22  H   UNK N   1      29.104  51.256  57.896  0.00  0.00     0.217 HD
ENDBRANCH   1  21
BRANCH   8  23
HETATM   23  O   UNK N   1      31.316  41.693  61.850  0.00  0.00    -0.395 OA
HETATM   24  H   UNK N   1      30.729  41.337  62.567  0.00  0.00     0.210 HD
ENDBRANCH   8  23
TORSDOF 3
ENDMDL
MODEL 4
REMARK VINA RESULT:      -5.4     20.523     23.564
REMARK  3 active torsions:
REMARK  status: ('A' for Active; 'I' for Inactive)
REMARK    1  A    between atoms: O_1  and  C_2 
REMARK    2  A    between atoms: C_3  and  C_21 
REMARK    3  A    between atoms: C_9  and  O_10 
ROOT
HETATM    1  C   UNK N   1      31.276  43.226  61.578  0.00  0.00     0.072 A 
HETATM    2  C   UNK N   1      32.538  43.007  60.972  0.00  0.00    -0.015 A 
HETATM    3  C   UNK N   1      33.698  43.640  61.541  0.00  0.00    -0.042 A 
HETATM    4  C   UNK N   1      33.577  44.394  62.746  0.00  0.00    -0.042 A 
HETATM    5  C   UNK N   1      34.804  44.999  63.491  0.00  0.00    -0.012 C 
HETATM    6  C   UNK N   1      36.182  44.864  62.688  0.00  0.00     0.009 C 
HETATM    7  C   UNK N   1      37.271  46.026  62.933  0.00  0.00    -0.017 C 
HETATM    8  C   UNK N   1      37.109  46.580  64.367  0.00  0.00     0.126 C 
HETATM    9  C   UNK N   1      35.692  47.160  64.611  0.00  0.00     0.033 C 
HETATM   10  C   UNK N   1      34.563  46.496  63.787  0.00  0.00     0.017 C 
HETATM   11  C   UNK N   1      37.195  47.214  61.921  0.00  0.00     0.018 C 
HETATM   12  C   UNK N   1      38.688  45.412  62.784  0.00  0.00     0.018 C 
HETATM   13  C   UNK N   1      35.944  44.680  61.185  0.00  0.00     0.011 C 
HETATM   14  C   UNK N   1      35.056  43.485  60.900  0.00  0.00     0.040 C 
HETATM   15  C   UNK N   1      34.886  44.191  64.823  0.00  0.00     0.021 C 
HETATM   16  C   UNK N   1      32.297  44.552  63.316  0.00  0.00     0.011 A 
HETATM   17  C   UNK N   1      31.172  43.998  62.729  0.00  0.00     0.037 A 
ENDROOT
BRANCH   2  18
HETATM   18  C   UNK N   1      32.642  42.082  59.743  0.00  0.00     0.014 C 
HETATM   19  C   UNK N   1      33.597  40.903  59.976  0.00  0.00     0.015 C 
HETATM   20  C   UNK N   1      33.025  42.879  58.487  0.00  0.00     0.015 C 
ENDBRANCH   2  18
BRANCH   1  21
HETATM   21  O   UNK N   1      30.156  42.681  61.055  0.00  0.00    -0.360 OA
HETATM   22  H   UNK N   1      30.182  41.901  60.482  0.00  0.00     0.217 HD
ENDBRANCH   1  21
BRANCH   8  23
HETATM   23  O   UNK N   1      38.083  47.553  64.663  0.00  0.00    -0.395 OA
HETATM   24  H   UNK N   1      37.670  48.440  64.490  0.00  0.00     0.210 HD
ENDBRANCH   8  23
TORSDOF 3
ENDMDL
MODEL 5
REMARK VINA RESULT:      -5.0      1.617      6.448
REMARK  3 active torsions:
REMARK  status: ('A' for Active; 'I' for Inactive)
REMARK    1  A    between atoms: O_1  and  C_2 
REMARK    2  A    between atoms: C_3  and  C_21 
REMARK    3  A    between atoms: C_9  and  O_10 
ROOT
HETATM    1  C   UNK N   1      28.251  54.205  40.053  0.00  0.00     0.072 A 
HETATM    2  C   UNK N   1      29.173  54.616  41.049  0.00  0.00    -0.015 A 
HETATM    3  C   UNK N   1      30.141  53.667  41.529  0.00  0.00    -0.042 A 
HETATM    4  C   UNK N   1      30.219  52.370  40.940  0.00  0.00    -0.042 A 
HETATM    5  C   UNK N   1      31.321  51.336  41.316  0.00  0.00    -0.012 C 
HETATM    6  C   UNK N   1      32.235  51.782  42.551  0.00  0.00     0.009 C 
HETATM    7  C   UNK N   1      32.826  50.598  43.471  0.00  0.00    -0.017 C 
HETATM    8  C   UNK N   1      33.029  49.334  42.604  0.00  0.00     0.126 C 
HETATM    9  C   UNK N   1      31.705  48.854  41.954  0.00  0.00     0.033 C 
HETATM   10  C   UNK N   1      30.678  49.973  41.659  0.00  0.00     0.017 C 
HETATM   11  C   UNK N   1      31.940  50.228  44.703  0.00  0.00     0.018 C 
HETATM   12  C   UNK N   1      34.198  51.050  44.035  0.00  0.00     0.018 C 
HETATM   13  C   UNK N   1      31.531  52.822  43.429  0.00  0.00     0.011 C 
HETATM   14  C   UNK N   1      31.108  54.038  42.628  0.00  0.00     0.040 C 
HETATM   15  C   UNK N   1      32.193  51.212  40.028  0.00  0.00     0.021 C 
HETATM   16  C   UNK N   1      29.291  52.031  39.934  0.00  0.00     0.011 A 
HETATM   17  C   UNK N   1      28.316  52.922  39.520  0.00  0.00     0.037 A 
ENDROOT
BRANCH   2  18
HETATM   18  C   UNK N   1      29.134  56.067  41.568  0.00  0.00     0.014 C 
HETATM   19  C   UNK N   1      27.741  56.473  42.069  0.00  0.00     0.015 C 
HETATM   20  C   UNK N   1      29.658  57.044  40.504  0.00  0.00     0.015 C 
ENDBRANCH   2  18
BRANCH   1  21
HETATM   21  O   UNK N   1      27.302  55.052  39.600  0.00  0.00    -0.360 OA
HETATM   22  H   UNK N   1      26.362  54.924  39.792  0.00  0.00     0.217 HD
ENDBRANCH   1  21
BRANCH   8  23
HETATM   23  O   UNK N   1      33.610  48.284  43.340  0.00  0.00    -0.395 OA
HETATM   24  H   UNK N   1      34.041  47.674  42.686  0.00  0.00     0.210 HD
ENDBRANCH   8  23
TORSDOF 3
ENDMDL
MODEL 6
REMARK VINA RESULT:      -5.0     15.953     17.844
REMARK  3 active torsions:
REMARK  status: ('A' for Active; 'I' for Inactive)
REMARK    1  A    between atoms: O_1  and  C_2 
REMARK    2  A    between atoms: C_3  and  C_21 
REMARK    3  A    between atoms: C_9  and  O_10 
ROOT
HETATM    1  C   UNK N   1      31.858  43.178  57.065  0.00  0.00     0.072 A 
HETATM    2  C   UNK N   1      30.492  43.273  57.431  0.00  0.00    -0.015 A 
HETATM    3  C   UNK N   1      29.494  42.816  56.502  0.00  0.00    -0.042 A 
HETATM    4  C   UNK N   1      29.890  42.197  55.280  0.00  0.00    -0.042 A 
HETATM    5  C   UNK N   1      28.873  41.562  54.286  0.00  0.00    -0.012 C 
HETATM    6  C   UNK N   1      27.342  41.834  54.661  0.00  0.00     0.009 C 
HETATM    7  C   UNK N   1      26.305  41.922  53.431  0.00  0.00    -0.017 C 
HETATM    8  C   UNK N   1      26.809  41.024  52.277  0.00  0.00     0.126 C 
HETATM    9  C   UNK N   1      28.216  41.447  51.781  0.00  0.00     0.033 C 
HETATM   10  C   UNK N   1      29.121  42.095  52.856  0.00  0.00     0.017 C 
HETATM   11  C   UNK N   1      26.069  43.365  52.881  0.00  0.00     0.018 C 
HETATM   12  C   UNK N   1      24.925  41.402  53.911  0.00  0.00     0.018 C 
HETATM   13  C   UNK N   1      27.191  43.066  55.560  0.00  0.00     0.011 C 
HETATM   14  C   UNK N   1      28.024  42.947  56.821  0.00  0.00     0.040 C 
HETATM   15  C   UNK N   1      29.171  40.032  54.350  0.00  0.00     0.021 C 
HETATM   16  C   UNK N   1      31.266  42.107  54.985  0.00  0.00     0.011 A 
HETATM   17  C   UNK N   1      32.224  42.610  55.850  0.00  0.00     0.037 A 
ENDROOT
BRANCH   2  18
HETATM   18  C   UNK N   1      30.114  43.833  58.816  0.00  0.00     0.014 C 
HETATM   19  C   UNK N   1      30.471  45.319  58.965  0.00  0.00     0.015 C 
HETATM   20  C   UNK N   1      30.737  42.988  59.939  0.00  0.00     0.015 C 
ENDBRANCH   2  18
BRANCH   1  21
HETATM   21  O   UNK N   1      32.827  43.629  57.891  0.00  0.00    -0.360 OA
HETATM   22  H   UNK N   1      33.556  43.065  58.186  0.00  0.00     0.217 HD
ENDBRANCH   1  21
BRANCH   8  23
HETATM   23  O   UNK N   1      25.906  41.006  51.198  0.00  0.00    -0.395 OA
HETATM   24  H   UNK N   1      24.999  41.158  51.574  0.00  0.00     0.210 HD
ENDBRANCH   8  23
TORSDOF 3
ENDMDL
MODEL 7
REMARK VINA RESULT:      -5.0     17.967     19.900
REMARK  3 active torsions:
REMARK  status: ('A' for Active; 'I' for Inactive)
REMARK    1  A    between atoms: O_1  and  C_2 
REMARK    2  A    between atoms: C_3  and  C_21 
REMARK    3  A    between atoms: C_9  and  O_10 
ROOT
HETATM    1  C   UNK N   1      32.178  43.950  58.207  0.00  0.00     0.072 A 
HETATM    2  C   UNK N   1      31.636  44.003  59.515  0.00  0.00    -0.015 A 
HETATM    3  C   UNK N   1      30.755  45.088  59.856  0.00  0.00    -0.042 A 
HETATM    4  C   UNK N   1      30.371  46.032  58.858  0.00  0.00    -0.042 A 
HETATM    5  C   UNK N   1      29.323  47.155  59.116  0.00  0.00    -0.012 C 
HETATM    6  C   UNK N   1      28.862  47.274  60.643  0.00  0.00     0.009 C 
HETATM    7  C   UNK N   1      28.442  48.743  61.154  0.00  0.00    -0.017 C 
HETATM    8  C   UNK N   1      27.862  49.547  59.968  0.00  0.00     0.126 C 
HETATM    9  C   UNK N   1      28.880  49.690  58.807  0.00  0.00     0.033 C 
HETATM   10  C   UNK N   1      29.889  48.524  58.676  0.00  0.00     0.017 C 
HETATM   11  C   UNK N   1      29.604  49.564  61.800  0.00  0.00     0.018 C 
HETATM   12  C   UNK N   1      27.350  48.593  62.246  0.00  0.00     0.018 C 
HETATM   13  C   UNK N   1      29.898  46.666  61.596  0.00  0.00     0.011 C 
HETATM   14  C   UNK N   1      30.196  45.220  61.252  0.00  0.00     0.040 C 
HETATM   15  C   UNK N   1      28.106  46.762  58.223  0.00  0.00     0.021 C 
HETATM   16  C   UNK N   1      30.924  45.910  57.567  0.00  0.00     0.011 A 
HETATM   17  C   UNK N   1      31.825  44.904  57.259  0.00  0.00     0.037 A 
ENDROOT
BRANCH   2  18
HETATM   18  C   UNK N   1      31.978  42.890  60.526  0.00  0.00     0.014 C 
HETATM   19  C   UNK N   1      33.473  42.855  60.875  0.00  0.00     0.015 C 
HETATM   20  C   UNK N   1      31.484  41.524  60.025  0.00  0.00     0.015 C 
ENDBRANCH   2  18
BRANCH   1  21
HETATM   21  O   UNK N   1      33.038  42.970  57.855  0.00  0.00    -0.360 OA
HETATM   22  H   UNK N   1      33.989  43.032  58.028  0.00  0.00     0.217 HD
ENDBRANCH   1  21
BRANCH   8  23
HETATM   23  O   UNK N   1      27.412  50.819  60.370  0.00  0.00    -0.395 OA
HETATM   24  H   UNK N   1      27.162  51.313  59.546  0.00  0.00     0.210 HD
ENDBRANCH   8  23
TORSDOF 3
ENDMDL
MODEL 8
REMARK VINA RESULT:      -4.7     12.268     15.502
REMARK  3 active torsions:
REMARK  status: ('A' for Active; 'I' for Inactive)
REMARK    1  A    between atoms: O_1  and  C_2 
REMARK    2  A    between atoms: C_3  and  C_21 
REMARK    3  A    between atoms: C_9  and  O_10 
ROOT
HETATM    1  C   UNK N   1      41.886  45.149  52.819  0.00  0.00     0.072 A 
HETATM    2  C   UNK N   1      41.234  44.202  51.990  0.00  0.00    -0.015 A 
HETATM    3  C   UNK N   1      41.017  44.527  50.606  0.00  0.00    -0.042 A 
HETATM    4  C   UNK N   1      41.536  45.743  50.072  0.00  0.00    -0.042 A 
HETATM    5  C   UNK N   1      41.455  46.105  48.559  0.00  0.00    -0.012 C 
HETATM    6  C   UNK N   1      40.574  45.086  47.695  0.00  0.00     0.009 C 
HETATM    7  C   UNK N   1      39.814  45.702  46.414  0.00  0.00    -0.017 C 
HETATM    8  C   UNK N   1      40.637  46.886  45.856  0.00  0.00     0.126 C 
HETATM    9  C   UNK N   1      40.835  48.006  46.911  0.00  0.00     0.033 C 
HETATM   10  C   UNK N   1      40.866  47.522  48.380  0.00  0.00     0.017 C 
HETATM   11  C   UNK N   1      38.356  46.188  46.694  0.00  0.00     0.018 C 
HETATM   12  C   UNK N   1      39.710  44.601  45.326  0.00  0.00     0.018 C 
HETATM   13  C   UNK N   1      39.580  44.315  48.571  0.00  0.00     0.011 C 
HETATM   14  C   UNK N   1      40.278  43.576  49.695  0.00  0.00     0.040 C 
HETATM   15  C   UNK N   1      42.936  46.070  48.072  0.00  0.00     0.021 C 
HETATM   16  C   UNK N   1      42.200  46.632  50.943  0.00  0.00     0.011 A 
HETATM   17  C   UNK N   1      42.348  46.348  52.289  0.00  0.00     0.037 A 
ENDROOT
BRANCH   2  18
HETATM   18  C   UNK N   1      40.802  42.845  52.581  0.00  0.00     0.014 C 
HETATM   19  C   UNK N   1      39.521  42.953  53.421  0.00  0.00     0.015 C 
HETATM   20  C   UNK N   1      41.948  42.204  53.379  0.00  0.00     0.015 C 
ENDBRANCH   2  18
BRANCH   1  21
HETATM   21  O   UNK N   1      42.077  44.900  54.133  0.00  0.00    -0.360 OA
HETATM   22  H   UNK N   1      42.883  44.480  54.465  0.00  0.00     0.217 HD
ENDBRANCH   1  21
BRANCH   8  23
HETATM   23  O   UNK N   1      40.056  47.422  44.691  0.00  0.00    -0.395 OA
HETATM   24  H   UNK N   1      39.400  48.108  44.982  0.00  0.00     0.210 HD
ENDBRANCH   8  23
TORSDOF 3
ENDMDL
MODEL 9
REMARK VINA RESULT:      -4.6     24.922     26.474
REMARK  3 active torsions:
REMARK  status: ('A' for Active; 'I' for Inactive)
REMARK    1  A    between atoms: O_1  and  C_2 
REMARK    2  A    between atoms: C_3  and  C_21 
REMARK    3  A    between atoms: C_9  and  O_10 
ROOT
HETATM    1  C   UNK N   1      47.752  49.040  60.129  0.00  0.00     0.072 A 
HETATM    2  C   UNK N   1      48.207  50.130  60.911  0.00  0.00    -0.015 A 
HETATM    3  C   UNK N   1      47.266  50.815  61.757  0.00  0.00    -0.042 A 
HETATM    4  C   UNK N   1      45.926  50.335  61.864  0.00  0.00    -0.042 A 
HETATM    5  C   UNK N   1      44.888  50.943  62.853  0.00  0.00    -0.012 C 
HETATM    6  C   UNK N   1      45.395  52.267  63.595  0.00  0.00     0.009 C 
HETATM    7  C   UNK N   1      44.265  53.344  63.993  0.00  0.00    -0.017 C 
HETATM    8  C   UNK N   1      42.934  52.607  64.266  0.00  0.00     0.126 C 
HETATM    9  C   UNK N   1      42.450  51.803  63.031  0.00  0.00     0.033 C 
HETATM   10  C   UNK N   1      43.576  51.280  62.108  0.00  0.00     0.017 C 
HETATM   11  C   UNK N   1      44.018  54.453  62.921  0.00  0.00     0.018 C 
HETATM   12  C   UNK N   1      44.714  54.074  65.286  0.00  0.00     0.018 C 
HETATM   13  C   UNK N   1      46.521  52.955  62.815  0.00  0.00     0.011 C 
HETATM   14  C   UNK N   1      47.686  52.017  62.567  0.00  0.00     0.040 C 
HETATM   15  C   UNK N   1      44.639  49.811  63.898  0.00  0.00     0.021 C 
HETATM   16  C   UNK N   1      45.543  49.228  61.079  0.00  0.00     0.011 A 
HETATM   17  C   UNK N   1      46.432  48.613  60.215  0.00  0.00     0.037 A 
ENDROOT
BRANCH   2  18
HETATM   18  C   UNK N   1      49.693  50.536  60.860  0.00  0.00     0.014 C 
HETATM   19  C   UNK N   1      50.086  51.154  59.511  0.00  0.00     0.015 C 
HETATM   20  C   UNK N   1      50.599  49.347  61.221  0.00  0.00     0.015 C 
ENDBRANCH   2  18
BRANCH   1  21
HETATM   21  O   UNK N   1      48.594  48.392  59.294  0.00  0.00    -0.360 OA
HETATM   22  H   UNK N   1      49.031  47.565  59.543  0.00  0.00     0.217 HD
ENDBRANCH   1  21
BRANCH   8  23
HETATM   23  O   UNK N   1      41.924  53.493  64.687  0.00  0.00    -0.395 OA
HETATM   24  H   UNK N   1      42.356  54.172  65.268  0.00  0.00     0.210 HD
ENDBRANCH   8  23
TORSDOF 3
ENDMDL
