MODEL 1
REMARK VINA RESULT:      -8.4      0.000      0.000
REMARK  9 active torsions:
REMARK  status: ('A' for Active; 'I' for Inactive)
REMARK    1  A    between atoms: C_5  and  C_20 
REMARK    2  A    between atoms: C_6  and  O_7 
REMARK    3  A    between atoms: C_6  and  C_9 
REMARK    4  A    between atoms: C_9  and  C_10 
REMARK    5  A    between atoms: C_12  and  O_13 
REMARK    6  A    between atoms: C_15  and  O_16 
REMARK    7  A    between atoms: C_20  and  C_21 
REMARK    8  A    between atoms: C_23  and  O_24 
REMARK    9  A    between atoms: C_26  and  O_27 
ROOT
HETATM    1  O   UNK N   1      42.867  49.210  45.361  0.00  0.00    -0.262 OA
HETATM    2  C   UNK N   1      42.426  48.425  46.186  0.00  0.00     0.294 C 
HETATM    3  O   UNK N   1      43.223  47.764  47.040  0.00  0.00    -0.319 OA
HETATM    4  C   UNK N   1      42.553  46.730  47.656  0.00  0.00     0.187 C 
HETATM    5  C   UNK N   1      41.083  47.154  47.540  0.00  0.00     0.059 C 
HETATM    6  C   UNK N   1      41.017  47.931  46.195  0.00  0.00     0.155 C 
ENDROOT
BRANCH   6   7
HETATM    7  O   UNK N   1      40.836  47.036  45.125  0.00  0.00    -0.379 OA
HETATM    8  H   UNK N   1      39.859  46.941  44.973  0.00  0.00     0.211 HD
ENDBRANCH   6   7
BRANCH   6   9
HETATM    9  C   UNK N   1      39.904  49.025  46.182  0.00  0.00     0.087 C 
BRANCH   9  10
HETATM   10  C   UNK N   1      39.419  49.404  44.797  0.00  0.00    -0.052 A 
HETATM   11  C   UNK N   1      38.343  48.723  44.203  0.00  0.00     0.047 A 
HETATM   12  C   UNK N   1      37.905  49.068  42.906  0.00  0.00     0.101 A 
HETATM   13  C   UNK N   1      38.569  50.095  42.204  0.00  0.00     0.099 A 
HETATM   14  C   UNK N   1      39.637  50.771  42.804  0.00  0.00     0.040 A 
HETATM   15  C   UNK N   1      40.051  50.439  44.092  0.00  0.00     0.010 A 
BRANCH  12  16
HETATM   16  O   UNK N   1      36.856  48.436  42.309  0.00  0.00    -0.353 OA
HETATM   17  C   UNK N   1      36.051  47.487  42.906  0.00  0.00     0.210 C 
ENDBRANCH  12  16
BRANCH  13  18
HETATM   18  O   UNK N   1      38.193  50.444  40.957  0.00  0.00    -0.358 OA
HETATM   19  H   UNK N   1      37.790  51.301  40.757  0.00  0.00     0.218 HD
ENDBRANCH  13  18
ENDBRANCH   9  10
ENDBRANCH   6   9
BRANCH   5  20
HETATM   20  C   UNK N   1      40.021  46.057  47.741  0.00  0.00     0.049 C 
BRANCH  20  21
HETATM   21  C   UNK N   1      40.267  45.263  49.002  0.00  0.00    -0.055 A 
HETATM   22  C   UNK N   1      41.169  45.753  49.956  0.00  0.00     0.046 A 
HETATM   23  C   UNK N   1      41.432  45.034  51.126  0.00  0.00     0.102 A 
HETATM   24  C   UNK N   1      40.771  43.821  51.373  0.00  0.00     0.101 A 
HETATM   25  C   UNK N   1      39.857  43.328  50.416  0.00  0.00     0.040 A 
HETATM   26  C   UNK N   1      39.615  44.042  49.234  0.00  0.00     0.010 A 
BRANCH  23  27
HETATM   27  O   UNK N   1      42.328  45.513  52.013  0.00  0.00    -0.353 OA
HETATM   28  C   UNK N   1      41.939  45.899  53.278  0.00  0.00     0.210 C 
ENDBRANCH  23  27
BRANCH  24  29
HETATM   29  O   UNK N   1      41.038  43.162  52.533  0.00  0.00    -0.353 OA
HETATM   30  C   UNK N   1      40.116  42.881  53.520  0.00  0.00     0.210 C 
ENDBRANCH  24  29
ENDBRANCH  20  21
ENDBRANCH   5  20
TORSDOF 9
ENDMDL
MODEL 2
REMARK VINA RESULT:      -7.7      1.696      8.943
REMARK  9 active torsions:
REMARK  status: ('A' for Active; 'I' for Inactive)
REMARK    1  A    between atoms: C_5  and  C_20 
REMARK    2  A    between atoms: C_6  and  O_7 
REMARK    3  A    between atoms: C_6  and  C_9 
REMARK    4  A    between atoms: C_9  and  C_10 
REMARK    5  A    between atoms: C_12  and  O_13 
REMARK    6  A    between atoms: C_15  and  O_16 
REMARK    7  A    between atoms: C_20  and  C_21 
REMARK    8  A    between atoms: C_23  and  O_24 
REMARK    9  A    between atoms: C_26  and  O_27 
ROOT
HETATM    1  O   UNK N   1      42.318  43.094  46.787  0.00  0.00    -0.262 OA
HETATM    2  C   UNK N   1      41.788  44.143  46.454  0.00  0.00     0.294 C 
HETATM    3  O   UNK N   1      41.838  44.599  45.193  0.00  0.00    -0.319 OA
HETATM    4  C   UNK N   1      41.445  45.917  45.118  0.00  0.00     0.187 C 
HETATM    5  C   UNK N   1      40.584  46.091  46.377  0.00  0.00     0.059 C 
HETATM    6  C   UNK N   1      41.237  45.141  47.418  0.00  0.00     0.155 C 
ENDROOT
BRANCH   6   7
HETATM    7  O   UNK N   1      42.305  45.790  48.066  0.00  0.00    -0.379 OA
HETATM    8  H   UNK N   1      42.179  45.673  49.045  0.00  0.00     0.211 HD
ENDBRANCH   6   7
BRANCH   6   9
HETATM    9  C   UNK N   1      40.217  44.596  48.466  0.00  0.00     0.087 C 
BRANCH   9  10
HETATM   10  C   UNK N   1      40.716  44.626  49.896  0.00  0.00    -0.052 A 
HETATM   11  C   UNK N   1      40.318  43.640  50.814  0.00  0.00     0.047 A 
HETATM   12  C   UNK N   1      40.772  43.681  52.151  0.00  0.00     0.101 A 
HETATM   13  C   UNK N   1      41.619  44.731  52.559  0.00  0.00     0.099 A 
HETATM   14  C   UNK N   1      42.014  45.706  51.638  0.00  0.00     0.040 A 
HETATM   15  C   UNK N   1      41.578  45.649  50.316  0.00  0.00     0.010 A 
BRANCH  12  16
HETATM   16  O   UNK N   1      40.416  42.732  53.061  0.00  0.00    -0.353 OA
HETATM   17  C   UNK N   1      39.139  42.523  53.541  0.00  0.00     0.210 C 
ENDBRANCH  12  16
BRANCH  13  18
HETATM   18  O   UNK N   1      42.062  44.817  53.831  0.00  0.00    -0.358 OA
HETATM   19  H   UNK N   1      42.641  45.531  54.132  0.00  0.00     0.218 HD
ENDBRANCH  13  18
ENDBRANCH   9  10
ENDBRANCH   6   9
BRANCH   5  20
HETATM   20  C   UNK N   1      40.319  47.533  46.847  0.00  0.00     0.049 C 
BRANCH  20  21
HETATM   21  C   UNK N   1      40.102  48.472  45.685  0.00  0.00    -0.055 A 
HETATM   22  C   UNK N   1      38.987  48.290  44.856  0.00  0.00     0.046 A 
HETATM   23  C   UNK N   1      38.766  49.131  43.760  0.00  0.00     0.102 A 
HETATM   24  C   UNK N   1      39.648  50.189  43.495  0.00  0.00     0.101 A 
HETATM   25  C   UNK N   1      40.769  50.378  44.331  0.00  0.00     0.040 A 
HETATM   26  C   UNK N   1      40.998  49.518  45.414  0.00  0.00     0.010 A 
BRANCH  23  27
HETATM   27  O   UNK N   1      37.702  48.915  42.961  0.00  0.00    -0.353 OA
HETATM   28  C   UNK N   1      36.594  49.733  43.016  0.00  0.00     0.210 C 
ENDBRANCH  23  27
BRANCH  24  29
HETATM   29  O   UNK N   1      39.387  50.999  42.432  0.00  0.00    -0.353 OA
HETATM   30  C   UNK N   1      39.751  52.326  42.334  0.00  0.00     0.210 C 
ENDBRANCH  24  29
ENDBRANCH  20  21
ENDBRANCH   5  20
TORSDOF 9
ENDMDL
MODEL 3
REMARK VINA RESULT:      -7.5      9.284     13.958
REMARK  9 active torsions:
REMARK  status: ('A' for Active; 'I' for Inactive)
REMARK    1  A    between atoms: C_5  and  C_20 
REMARK    2  A    between atoms: C_6  and  O_7 
REMARK    3  A    between atoms: C_6  and  C_9 
REMARK    4  A    between atoms: C_9  and  C_10 
REMARK    5  A    between atoms: C_12  and  O_13 
REMARK    6  A    between atoms: C_15  and  O_16 
REMARK    7  A    between atoms: C_20  and  C_21 
REMARK    8  A    between atoms: C_23  and  O_24 
REMARK    9  A    between atoms: C_26  and  O_27 
ROOT
HETATM    1  O   UNK N   1      25.983  54.970  40.195  0.00  0.00    -0.262 OA
HETATM    2  C   UNK N   1      26.856  55.037  41.046  0.00  0.00     0.294 C 
HETATM    3  O   UNK N   1      26.589  54.902  42.354  0.00  0.00    -0.319 OA
HETATM    4  C   UNK N   1      27.652  55.310  43.129  0.00  0.00     0.187 C 
HETATM    5  C   UNK N   1      28.845  55.179  42.174  0.00  0.00     0.059 C 
HETATM    6  C   UNK N   1      28.249  55.499  40.775  0.00  0.00     0.155 C 
ENDROOT
BRANCH   6   7
HETATM    7  O   UNK N   1      28.238  56.890  40.559  0.00  0.00    -0.379 OA
HETATM    8  H   UNK N   1      28.966  57.101  39.917  0.00  0.00     0.211 HD
ENDBRANCH   6   7
BRANCH   6   9
HETATM    9  C   UNK N   1      29.002  54.776  39.615  0.00  0.00     0.087 C 
BRANCH   9  10
HETATM   10  C   UNK N   1      29.334  53.325  39.897  0.00  0.00    -0.052 A 
HETATM   11  C   UNK N   1      28.313  52.377  40.071  0.00  0.00     0.047 A 
HETATM   12  C   UNK N   1      28.627  51.028  40.351  0.00  0.00     0.101 A 
HETATM   13  C   UNK N   1      29.979  50.646  40.467  0.00  0.00     0.099 A 
HETATM   14  C   UNK N   1      30.990  51.595  40.288  0.00  0.00     0.040 A 
HETATM   15  C   UNK N   1      30.673  52.919  39.993  0.00  0.00     0.010 A 
BRANCH  12  16
HETATM   16  O   UNK N   1      27.660  50.083  40.510  0.00  0.00    -0.353 OA
HETATM   17  C   UNK N   1      26.302  50.301  40.394  0.00  0.00     0.210 C 
ENDBRANCH  12  16
BRANCH  13  18
HETATM   18  O   UNK N   1      30.322  49.372  40.749  0.00  0.00    -0.358 OA
HETATM   19  H   UNK N   1      30.528  49.076  41.648  0.00  0.00     0.218 HD
ENDBRANCH  13  18
ENDBRANCH   9  10
ENDBRANCH   6   9
BRANCH   5  20
HETATM   20  C   UNK N   1      30.130  55.937  42.553  0.00  0.00     0.049 C 
BRANCH  20  21
HETATM   21  C   UNK N   1      31.124  55.043  43.254  0.00  0.00    -0.055 A 
HETATM   22  C   UNK N   1      32.246  55.614  43.871  0.00  0.00     0.046 A 
HETATM   23  C   UNK N   1      33.194  54.812  44.513  0.00  0.00     0.102 A 
HETATM   24  C   UNK N   1      33.019  53.421  44.571  0.00  0.00     0.101 A 
HETATM   25  C   UNK N   1      31.888  52.844  43.955  0.00  0.00     0.040 A 
HETATM   26  C   UNK N   1      30.952  53.650  43.293  0.00  0.00     0.010 A 
BRANCH  23  27
HETATM   27  O   UNK N   1      34.280  55.385  45.072  0.00  0.00    -0.353 OA
HETATM   28  C   UNK N   1      34.172  56.550  45.801  0.00  0.00     0.210 C 
ENDBRANCH  23  27
BRANCH  24  29
HETATM   29  O   UNK N   1      33.954  52.677  45.224  0.00  0.00    -0.353 OA
HETATM   30  C   UNK N   1      34.222  51.346  44.982  0.00  0.00     0.210 C 
ENDBRANCH  24  29
ENDBRANCH  20  21
ENDBRANCH   5  20
TORSDOF 9
ENDMDL
MODEL 4
REMARK VINA RESULT:      -6.7      9.886     14.356
REMARK  9 active torsions:
REMARK  status: ('A' for Active; 'I' for Inactive)
REMARK    1  A    between atoms: C_5  and  C_20 
REMARK    2  A    between atoms: C_6  and  O_7 
REMARK    3  A    between atoms: C_6  and  C_9 
REMARK    4  A    between atoms: C_9  and  C_10 
REMARK    5  A    between atoms: C_12  and  O_13 
REMARK    6  A    between atoms: C_15  and  O_16 
REMARK    7  A    between atoms: C_20  and  C_21 
REMARK    8  A    between atoms: C_23  and  O_24 
REMARK    9  A    between atoms: C_26  and  O_27 
ROOT
HETATM    1  O   UNK N   1      34.458  52.053  45.252  0.00  0.00    -0.262 OA
HETATM    2  C   UNK N   1      33.620  52.873  44.910  0.00  0.00     0.294 C 
HETATM    3  O   UNK N   1      33.501  54.066  45.513  0.00  0.00    -0.319 OA
HETATM    4  C   UNK N   1      32.319  54.685  45.173  0.00  0.00     0.187 C 
HETATM    5  C   UNK N   1      31.954  54.024  43.838  0.00  0.00     0.059 C 
HETATM    6  C   UNK N   1      32.499  52.574  43.971  0.00  0.00     0.155 C 
ENDROOT
BRANCH   6   7
HETATM    7  O   UNK N   1      31.556  51.759  44.625  0.00  0.00    -0.379 OA
HETATM    8  H   UNK N   1      31.592  51.975  45.594  0.00  0.00     0.211 HD
ENDBRANCH   6   7
BRANCH   6   9
HETATM    9  C   UNK N   1      32.899  51.948  42.598  0.00  0.00     0.087 C 
BRANCH   9  10
HETATM   10  C   UNK N   1      31.900  50.946  42.056  0.00  0.00    -0.052 A 
HETATM   11  C   UNK N   1      30.822  51.368  41.259  0.00  0.00     0.047 A 
HETATM   12  C   UNK N   1      29.884  50.434  40.769  0.00  0.00     0.101 A 
HETATM   13  C   UNK N   1      30.031  49.071  41.100  0.00  0.00     0.099 A 
HETATM   14  C   UNK N   1      31.109  48.658  41.890  0.00  0.00     0.040 A 
HETATM   15  C   UNK N   1      32.042  49.583  42.354  0.00  0.00     0.010 A 
BRANCH  12  16
HETATM   16  O   UNK N   1      28.838  50.810  39.982  0.00  0.00    -0.353 OA
HETATM   17  C   UNK N   1      28.454  52.111  39.731  0.00  0.00     0.210 C 
ENDBRANCH  12  16
BRANCH  13  18
HETATM   18  O   UNK N   1      29.148  48.148  40.666  0.00  0.00    -0.358 OA
HETATM   19  H   UNK N   1      29.398  47.228  40.501  0.00  0.00     0.218 HD
ENDBRANCH  13  18
ENDBRANCH   9  10
ENDBRANCH   6   9
BRANCH   5  20
HETATM   20  C   UNK N   1      30.494  54.159  43.367  0.00  0.00     0.049 C 
BRANCH  20  21
HETATM   21  C   UNK N   1      30.367  55.102  42.196  0.00  0.00    -0.055 A 
HETATM   22  C   UNK N   1      29.643  56.293  42.350  0.00  0.00     0.046 A 
HETATM   23  C   UNK N   1      29.491  57.180  41.279  0.00  0.00     0.102 A 
HETATM   24  C   UNK N   1      30.088  56.900  40.041  0.00  0.00     0.101 A 
HETATM   25  C   UNK N   1      30.822  55.705  39.885  0.00  0.00     0.040 A 
HETATM   26  C   UNK N   1      30.952  54.808  40.954  0.00  0.00     0.010 A 
BRANCH  23  27
HETATM   27  O   UNK N   1      28.764  58.303  41.446  0.00  0.00    -0.353 OA
HETATM   28  C   UNK N   1      27.475  58.250  41.931  0.00  0.00     0.210 C 
ENDBRANCH  23  27
BRANCH  24  29
HETATM   29  O   UNK N   1      29.936  57.799  39.030  0.00  0.00    -0.353 OA
HETATM   30  C   UNK N   1      28.988  57.721  38.031  0.00  0.00     0.210 C 
ENDBRANCH  24  29
ENDBRANCH  20  21
ENDBRANCH   5  20
TORSDOF 9
ENDMDL
MODEL 5
REMARK VINA RESULT:      -6.1      1.874      8.956
REMARK  9 active torsions:
REMARK  status: ('A' for Active; 'I' for Inactive)
REMARK    1  A    between atoms: C_5  and  C_20 
REMARK    2  A    between atoms: C_6  and  O_7 
REMARK    3  A    between atoms: C_6  and  C_9 
REMARK    4  A    between atoms: C_9  and  C_10 
REMARK    5  A    between atoms: C_12  and  O_13 
REMARK    6  A    between atoms: C_15  and  O_16 
REMARK    7  A    between atoms: C_20  and  C_21 
REMARK    8  A    between atoms: C_23  and  O_24 
REMARK    9  A    between atoms: C_26  and  O_27 
ROOT
HETATM    1  O   UNK N   1      42.063  42.972  47.597  0.00  0.00    -0.262 OA
HETATM    2  C   UNK N   1      41.757  43.991  46.997  0.00  0.00     0.294 C 
HETATM    3  O   UNK N   1      41.928  44.116  45.671  0.00  0.00    -0.319 OA
HETATM    4  C   UNK N   1      41.803  45.427  45.270  0.00  0.00     0.187 C 
HETATM    5  C   UNK N   1      40.962  46.052  46.391  0.00  0.00     0.059 C 
HETATM    6  C   UNK N   1      41.390  45.274  47.666  0.00  0.00     0.155 C 
ENDROOT
BRANCH   6   7
HETATM    7  O   UNK N   1      42.547  45.850  48.221  0.00  0.00    -0.379 OA
HETATM    8  H   UNK N   1      42.759  46.667  47.696  0.00  0.00     0.211 HD
ENDBRANCH   6   7
BRANCH   6   9
HETATM    9  C   UNK N   1      40.256  45.192  48.736  0.00  0.00     0.087 C 
BRANCH   9  10
HETATM   10  C   UNK N   1      40.711  44.683  50.088  0.00  0.00    -0.052 A 
HETATM   11  C   UNK N   1      41.367  45.536  50.991  0.00  0.00     0.047 A 
HETATM   12  C   UNK N   1      41.805  45.053  52.244  0.00  0.00     0.101 A 
HETATM   13  C   UNK N   1      41.589  43.699  52.575  0.00  0.00     0.099 A 
HETATM   14  C   UNK N   1      40.931  42.857  51.672  0.00  0.00     0.040 A 
HETATM   15  C   UNK N   1      40.485  43.345  50.445  0.00  0.00     0.010 A 
BRANCH  12  16
HETATM   16  O   UNK N   1      42.429  45.858  53.147  0.00  0.00    -0.353 OA
HETATM   17  C   UNK N   1      41.797  46.682  54.056  0.00  0.00     0.210 C 
ENDBRANCH  12  16
BRANCH  13  18
HETATM   18  O   UNK N   1      42.005  43.193  53.754  0.00  0.00    -0.358 OA
HETATM   19  H   UNK N   1      41.391  42.955  54.463  0.00  0.00     0.218 HD
ENDBRANCH  13  18
ENDBRANCH   9  10
ENDBRANCH   6   9
BRANCH   5  20
HETATM   20  C   UNK N   1      40.974  47.589  46.499  0.00  0.00     0.049 C 
BRANCH  20  21
HETATM   21  C   UNK N   1      40.000  48.226  45.538  0.00  0.00    -0.055 A 
HETATM   22  C   UNK N   1      40.267  49.509  45.041  0.00  0.00     0.046 A 
HETATM   23  C   UNK N   1      39.376  50.136  44.164  0.00  0.00     0.102 A 
HETATM   24  C   UNK N   1      38.213  49.472  43.746  0.00  0.00     0.101 A 
HETATM   25  C   UNK N   1      37.944  48.177  44.241  0.00  0.00     0.040 A 
HETATM   26  C   UNK N   1      38.829  47.564  45.138  0.00  0.00     0.010 A 
BRANCH  23  27
HETATM   27  O   UNK N   1      39.642  51.383  43.725  0.00  0.00    -0.353 OA
HETATM   28  C   UNK N   1      39.869  51.633  42.388  0.00  0.00     0.210 C 
ENDBRANCH  23  27
BRANCH  24  29
HETATM   29  O   UNK N   1      37.382  50.106  42.874  0.00  0.00    -0.353 OA
HETATM   30  C   UNK N   1      36.016  50.230  43.023  0.00  0.00     0.210 C 
ENDBRANCH  24  29
ENDBRANCH  20  21
ENDBRANCH   5  20
TORSDOF 9
ENDMDL
MODEL 6
REMARK VINA RESULT:      -6.1     13.621     17.295
REMARK  9 active torsions:
REMARK  status: ('A' for Active; 'I' for Inactive)
REMARK    1  A    between atoms: C_5  and  C_20 
REMARK    2  A    between atoms: C_6  and  O_7 
REMARK    3  A    between atoms: C_6  and  C_9 
REMARK    4  A    between atoms: C_9  and  C_10 
REMARK    5  A    between atoms: C_12  and  O_13 
REMARK    6  A    between atoms: C_15  and  O_16 
REMARK    7  A    between atoms: C_20  and  C_21 
REMARK    8  A    between atoms: C_23  and  O_24 
REMARK    9  A    between atoms: C_26  and  O_27 
ROOT
HETATM    1  O   UNK N   1      31.371  42.603  62.999  0.00  0.00    -0.262 OA
HETATM    2  C   UNK N   1      31.110  43.665  62.456  0.00  0.00     0.294 C 
HETATM    3  O   UNK N   1      31.873  44.757  62.618  0.00  0.00    -0.319 OA
HETATM    4  C   UNK N   1      31.231  45.890  62.170  0.00  0.00     0.187 C 
HETATM    5  C   UNK N   1      30.206  45.334  61.172  0.00  0.00     0.059 C 
HETATM    6  C   UNK N   1      29.821  43.947  61.757  0.00  0.00     0.155 C 
ENDROOT
BRANCH   6   7
HETATM    7  O   UNK N   1      28.800  44.091  62.716  0.00  0.00    -0.379 OA
HETATM    8  H   UNK N   1      28.444  43.185  62.914  0.00  0.00     0.211 HD
ENDBRANCH   6   7
BRANCH   6   9
HETATM    9  C   UNK N   1      29.394  42.923  60.659  0.00  0.00     0.087 C 
BRANCH   9  10
HETATM   10  C   UNK N   1      30.209  43.001  59.384  0.00  0.00    -0.052 A 
HETATM   11  C   UNK N   1      31.610  42.899  59.422  0.00  0.00     0.047 A 
HETATM   12  C   UNK N   1      32.368  42.988  58.233  0.00  0.00     0.101 A 
HETATM   13  C   UNK N   1      31.704  43.197  57.007  0.00  0.00     0.099 A 
HETATM   14  C   UNK N   1      30.308  43.293  56.977  0.00  0.00     0.040 A 
HETATM   15  C   UNK N   1      29.566  43.184  58.152  0.00  0.00     0.010 A 
BRANCH  12  16
HETATM   16  O   UNK N   1      33.725  42.878  58.236  0.00  0.00    -0.353 OA
HETATM   17  C   UNK N   1      34.538  43.041  59.339  0.00  0.00     0.210 C 
ENDBRANCH  12  16
BRANCH  13  18
HETATM   18  O   UNK N   1      32.390  43.305  55.851  0.00  0.00    -0.358 OA
HETATM   19  H   UNK N   1      32.730  42.534  55.375  0.00  0.00     0.218 HD
ENDBRANCH  13  18
ENDBRANCH   9  10
ENDBRANCH   6   9
BRANCH   5  20
HETATM   20  C   UNK N   1      29.035  46.257  60.787  0.00  0.00     0.049 C 
BRANCH  20  21
HETATM   21  C   UNK N   1      29.418  47.223  59.692  0.00  0.00    -0.055 A 
HETATM   22  C   UNK N   1      29.167  48.591  59.865  0.00  0.00     0.046 A 
HETATM   23  C   UNK N   1      29.493  49.509  58.862  0.00  0.00     0.102 A 
HETATM   24  C   UNK N   1      30.104  49.073  57.677  0.00  0.00     0.101 A 
HETATM   25  C   UNK N   1      30.363  47.696  57.502  0.00  0.00     0.040 A 
HETATM   26  C   UNK N   1      30.013  46.777  58.501  0.00  0.00     0.010 A 
BRANCH  23  27
HETATM   27  O   UNK N   1      29.213  50.816  59.042  0.00  0.00    -0.353 OA
HETATM   28  C   UNK N   1      27.933  51.298  58.870  0.00  0.00     0.210 C 
ENDBRANCH  23  27
BRANCH  24  29
HETATM   29  O   UNK N   1      30.426  50.001  56.734  0.00  0.00    -0.353 OA
HETATM   30  C   UNK N   1      29.640  50.345  55.655  0.00  0.00     0.210 C 
ENDBRANCH  24  29
ENDBRANCH  20  21
ENDBRANCH   5  20
TORSDOF 9
ENDMDL
MODEL 7
REMARK VINA RESULT:      -6.0     13.949     16.203
REMARK  9 active torsions:
REMARK  status: ('A' for Active; 'I' for Inactive)
REMARK    1  A    between atoms: C_5  and  C_20 
REMARK    2  A    between atoms: C_6  and  O_7 
REMARK    3  A    between atoms: C_6  and  C_9 
REMARK    4  A    between atoms: C_9  and  C_10 
REMARK    5  A    between atoms: C_12  and  O_13 
REMARK    6  A    between atoms: C_15  and  O_16 
REMARK    7  A    between atoms: C_20  and  C_21 
REMARK    8  A    between atoms: C_23  and  O_24 
REMARK    9  A    between atoms: C_26  and  O_27 
ROOT
HETATM    1  O   UNK N   1      33.905  42.128  58.969  0.00  0.00    -0.262 OA
HETATM    2  C   UNK N   1      33.047  42.866  59.428  0.00  0.00     0.294 C 
HETATM    3  O   UNK N   1      33.101  43.328  60.687  0.00  0.00    -0.319 OA
HETATM    4  C   UNK N   1      31.899  43.878  61.073  0.00  0.00     0.187 C 
HETATM    5  C   UNK N   1      31.241  44.243  59.736  0.00  0.00     0.059 C 
HETATM    6  C   UNK N   1      31.745  43.149  58.754  0.00  0.00     0.155 C 
ENDROOT
BRANCH   6   7
HETATM    7  O   UNK N   1      30.926  42.007  58.838  0.00  0.00    -0.379 OA
HETATM    8  H   UNK N   1      30.004  42.278  58.585  0.00  0.00     0.211 HD
ENDBRANCH   6   7
BRANCH   6   9
HETATM    9  C   UNK N   1      31.828  43.650  57.278  0.00  0.00     0.087 C 
BRANCH   9  10
HETATM   10  C   UNK N   1      30.928  42.903  56.315  0.00  0.00    -0.052 A 
HETATM   11  C   UNK N   1      29.532  42.929  56.472  0.00  0.00     0.047 A 
HETATM   12  C   UNK N   1      28.698  42.219  55.582  0.00  0.00     0.101 A 
HETATM   13  C   UNK N   1      29.281  41.470  54.540  0.00  0.00     0.099 A 
HETATM   14  C   UNK N   1      30.671  41.452  54.387  0.00  0.00     0.040 A 
HETATM   15  C   UNK N   1      31.488  42.171  55.258  0.00  0.00     0.010 A 
BRANCH  12  16
HETATM   16  O   UNK N   1      27.341  42.237  55.699  0.00  0.00    -0.353 OA
HETATM   17  C   UNK N   1      26.510  43.225  55.211  0.00  0.00     0.210 C 
ENDBRANCH  12  16
BRANCH  13  18
HETATM   18  O   UNK N   1      28.521  40.763  53.678  0.00  0.00    -0.358 OA
HETATM   19  H   UNK N   1      28.865  40.007  53.181  0.00  0.00     0.218 HD
ENDBRANCH  13  18
ENDBRANCH   9  10
ENDBRANCH   6   9
BRANCH   5  20
HETATM   20  C   UNK N   1      29.722  44.493  59.750  0.00  0.00     0.049 C 
BRANCH  20  21
HETATM   21  C   UNK N   1      29.345  45.706  58.935  0.00  0.00    -0.055 A 
HETATM   22  C   UNK N   1      28.027  45.844  58.478  0.00  0.00     0.046 A 
HETATM   23  C   UNK N   1      27.650  46.946  57.705  0.00  0.00     0.102 A 
HETATM   24  C   UNK N   1      28.585  47.947  57.400  0.00  0.00     0.101 A 
HETATM   25  C   UNK N   1      29.912  47.814  57.863  0.00  0.00     0.040 A 
HETATM   26  C   UNK N   1      30.290  46.695  58.618  0.00  0.00     0.010 A 
BRANCH  23  27
HETATM   27  O   UNK N   1      26.383  47.038  57.253  0.00  0.00    -0.353 OA
HETATM   28  C   UNK N   1      25.473  46.027  57.476  0.00  0.00     0.210 C 
ENDBRANCH  23  27
BRANCH  24  29
HETATM   29  O   UNK N   1      28.174  49.015  56.664  0.00  0.00    -0.353 OA
HETATM   30  C   UNK N   1      28.997  50.003  56.165  0.00  0.00     0.210 C 
ENDBRANCH  24  29
ENDBRANCH  20  21
ENDBRANCH   5  20
TORSDOF 9
ENDMDL
MODEL 8
REMARK VINA RESULT:      -5.9     13.512     15.982
REMARK  9 active torsions:
REMARK  status: ('A' for Active; 'I' for Inactive)
REMARK    1  A    between atoms: C_5  and  C_20 
REMARK    2  A    between atoms: C_6  and  O_7 
REMARK    3  A    between atoms: C_6  and  C_9 
REMARK    4  A    between atoms: C_9  and  C_10 
REMARK    5  A    between atoms: C_12  and  O_13 
REMARK    6  A    between atoms: C_15  and  O_16 
REMARK    7  A    between atoms: C_20  and  C_21 
REMARK    8  A    between atoms: C_23  and  O_24 
REMARK    9  A    between atoms: C_26  and  O_27 
ROOT
HETATM    1  O   UNK N   1      26.785  37.782  54.594  0.00  0.00    -0.262 OA
HETATM    2  C   UNK N   1      27.570  38.293  55.377  0.00  0.00     0.294 C 
HETATM    3  O   UNK N   1      28.744  37.720  55.686  0.00  0.00    -0.319 OA
HETATM    4  C   UNK N   1      29.313  38.307  56.795  0.00  0.00     0.187 C 
HETATM    5  C   UNK N   1      28.662  39.696  56.822  0.00  0.00     0.059 C 
HETATM    6  C   UNK N   1      27.238  39.460  56.247  0.00  0.00     0.155 C 
ENDROOT
BRANCH   6   7
HETATM    7  O   UNK N   1      26.365  39.038  57.268  0.00  0.00    -0.379 OA
HETATM    8  H   UNK N   1      25.782  39.807  57.503  0.00  0.00     0.211 HD
ENDBRANCH   6   7
BRANCH   6   9
HETATM    9  C   UNK N   1      26.660  40.715  55.523  0.00  0.00     0.087 C 
BRANCH   9  10
HETATM   10  C   UNK N   1      27.417  41.119  54.274  0.00  0.00    -0.052 A 
HETATM   11  C   UNK N   1      26.882  40.867  53.000  0.00  0.00     0.047 A 
HETATM   12  C   UNK N   1      27.599  41.229  51.838  0.00  0.00     0.101 A 
HETATM   13  C   UNK N   1      28.865  41.835  51.970  0.00  0.00     0.099 A 
HETATM   14  C   UNK N   1      29.389  42.086  53.242  0.00  0.00     0.040 A 
HETATM   15  C   UNK N   1      28.668  41.743  54.384  0.00  0.00     0.010 A 
BRANCH  12  16
HETATM   16  O   UNK N   1      27.101  41.013  50.589  0.00  0.00    -0.353 OA
HETATM   17  C   UNK N   1      25.877  41.454  50.129  0.00  0.00     0.210 C 
ENDBRANCH  12  16
BRANCH  13  18
HETATM   18  O   UNK N   1      29.590  42.181  50.886  0.00  0.00    -0.358 OA
HETATM   19  H   UNK N   1      29.510  43.048  50.463  0.00  0.00     0.218 HD
ENDBRANCH  13  18
ENDBRANCH   9  10
ENDBRANCH   6   9
BRANCH   5  20
HETATM   20  C   UNK N   1      28.736  40.477  58.148  0.00  0.00     0.049 C 
BRANCH  20  21
HETATM   21  C   UNK N   1      29.353  41.842  57.961  0.00  0.00    -0.055 A 
HETATM   22  C   UNK N   1      30.748  41.961  57.892  0.00  0.00     0.046 A 
HETATM   23  C   UNK N   1      31.351  43.213  57.738  0.00  0.00     0.102 A 
HETATM   24  C   UNK N   1      30.562  44.367  57.621  0.00  0.00     0.101 A 
HETATM   25  C   UNK N   1      29.157  44.250  57.684  0.00  0.00     0.040 A 
HETATM   26  C   UNK N   1      28.558  42.995  57.862  0.00  0.00     0.010 A 
BRANCH  23  27
HETATM   27  O   UNK N   1      32.697  43.303  57.706  0.00  0.00    -0.353 OA
HETATM   28  C   UNK N   1      33.452  43.065  58.834  0.00  0.00     0.210 C 
ENDBRANCH  23  27
BRANCH  24  29
HETATM   29  O   UNK N   1      31.186  45.565  57.450  0.00  0.00    -0.353 OA
HETATM   30  C   UNK N   1      30.605  46.801  57.644  0.00  0.00     0.210 C 
ENDBRANCH  24  29
ENDBRANCH  20  21
ENDBRANCH   5  20
TORSDOF 9
ENDMDL
MODEL 9
REMARK VINA RESULT:      -5.8     13.817     16.170
REMARK  9 active torsions:
REMARK  status: ('A' for Active; 'I' for Inactive)
REMARK    1  A    between atoms: C_5  and  C_20 
REMARK    2  A    between atoms: C_6  and  O_7 
REMARK    3  A    between atoms: C_6  and  C_9 
REMARK    4  A    between atoms: C_9  and  C_10 
REMARK    5  A    between atoms: C_12  and  O_13 
REMARK    6  A    between atoms: C_15  and  O_16 
REMARK    7  A    between atoms: C_20  and  C_21 
REMARK    8  A    between atoms: C_23  and  O_24 
REMARK    9  A    between atoms: C_26  and  O_27 
ROOT
HETATM    1  O   UNK N   1      28.167  37.145  53.005  0.00  0.00    -0.262 OA
HETATM    2  C   UNK N   1      28.675  37.320  54.102  0.00  0.00     0.294 C 
HETATM    3  O   UNK N   1      29.904  36.870  54.399  0.00  0.00    -0.319 OA
HETATM    4  C   UNK N   1      30.140  36.912  55.755  0.00  0.00     0.187 C 
HETATM    5  C   UNK N   1      29.149  37.976  56.245  0.00  0.00     0.059 C 
HETATM    6  C   UNK N   1      27.930  37.827  55.292  0.00  0.00     0.155 C 
ENDROOT
BRANCH   6   7
HETATM    7  O   UNK N   1      27.068  36.818  55.760  0.00  0.00    -0.379 OA
HETATM    8  H   UNK N   1      26.696  36.348  54.967  0.00  0.00     0.211 HD
ENDBRANCH   6   7
BRANCH   6   9
HETATM    9  C   UNK N   1      27.147  39.163  55.096  0.00  0.00     0.087 C 
BRANCH   9  10
HETATM   10  C   UNK N   1      27.775  40.113  54.096  0.00  0.00    -0.052 A 
HETATM   11  C   UNK N   1      27.279  40.202  52.785  0.00  0.00     0.047 A 
HETATM   12  C   UNK N   1      27.877  41.077  51.851  0.00  0.00     0.101 A 
HETATM   13  C   UNK N   1      28.988  41.850  52.245  0.00  0.00     0.099 A 
HETATM   14  C   UNK N   1      29.473  41.758  53.554  0.00  0.00     0.040 A 
HETATM   15  C   UNK N   1      28.866  40.908  54.475  0.00  0.00     0.010 A 
BRANCH  12  16
HETATM   16  O   UNK N   1      27.410  41.198  50.578  0.00  0.00    -0.353 OA
HETATM   17  C   UNK N   1      26.140  41.610  50.228  0.00  0.00     0.210 C 
ENDBRANCH  12  16
BRANCH  13  18
HETATM   18  O   UNK N   1      29.599  42.685  51.379  0.00  0.00    -0.358 OA
HETATM   19  H   UNK N   1      29.219  43.538  51.125  0.00  0.00     0.218 HD
ENDBRANCH  13  18
ENDBRANCH   9  10
ENDBRANCH   6   9
BRANCH   5  20
HETATM   20  C   UNK N   1      28.833  37.995  57.752  0.00  0.00     0.049 C 
BRANCH  20  21
HETATM   21  C   UNK N   1      29.648  39.033  58.484  0.00  0.00    -0.055 A 
HETATM   22  C   UNK N   1      29.598  40.368  58.060  0.00  0.00     0.046 A 
HETATM   23  C   UNK N   1      30.355  41.351  58.705  0.00  0.00     0.102 A 
HETATM   24  C   UNK N   1      31.156  41.015  59.808  0.00  0.00     0.101 A 
HETATM   25  C   UNK N   1      31.203  39.672  60.240  0.00  0.00     0.040 A 
HETATM   26  C   UNK N   1      30.461  38.687  59.575  0.00  0.00     0.010 A 
BRANCH  23  27
HETATM   27  O   UNK N   1      30.313  42.623  58.258  0.00  0.00    -0.353 OA
HETATM   28  C   UNK N   1      30.830  42.960  57.025  0.00  0.00     0.210 C 
ENDBRANCH  23  27
BRANCH  24  29
HETATM   29  O   UNK N   1      31.861  42.004  60.422  0.00  0.00    -0.353 OA
HETATM   30  C   UNK N   1      33.224  42.188  60.325  0.00  0.00     0.210 C 
ENDBRANCH  24  29
ENDBRANCH  20  21
ENDBRANCH   5  20
TORSDOF 9
ENDMDL
