MODEL 1
REMARK VINA RESULT:      -7.9      0.000      0.000
REMARK  11 active torsions:
REMARK  status: ('A' for Active; 'I' for Inactive)
REMARK    1  A    between atoms: C_9  and  C_10 
REMARK    2  A    between atoms: C_10  and  C_11 
REMARK    3  A    between atoms: C_11  and  C_12 
REMARK    4  A    between atoms: C_12  and  C_13 
REMARK    5  A    between atoms: C_14  and  C_15 
REMARK    6  A    between atoms: C_15  and  C_17 
REMARK    7  A    between atoms: C_17  and  C_18 
REMARK    8  A    between atoms: C_19  and  C_20 
REMARK    9  A    between atoms: C_20  and  C_21 
REMARK   10  A    between atoms: C_22  and  O_23 
REMARK   11  A    between atoms: C_27  and  O_29 
ROOT
HETATM    1  C   UNK N   1      37.475  50.041  42.390  0.00  0.00     0.153 C 
HETATM    2  O   UNK N   1      37.519  49.533  41.280  0.00  0.00    -0.293 OA
ENDROOT
BRANCH   1   3
HETATM    3  C   UNK N   1      38.698  50.619  43.015  0.00  0.00     0.052 C 
HETATM    4  C   UNK N   1      39.506  49.976  43.899  0.00  0.00    -0.080 C 
HETATM    5  C   UNK N   1      40.754  50.661  44.392  0.00  0.00     0.043 C 
BRANCH   4   6
HETATM    6  C   UNK N   1      39.217  48.592  44.453  0.00  0.00     0.034 C 
BRANCH   6   7
HETATM    7  C   UNK N   1      39.457  48.546  45.976  0.00  0.00     0.008 C 
BRANCH   7   8
HETATM    8  C   UNK N   1      40.666  47.655  46.307  0.00  0.00     0.046 C 
BRANCH   8   9
HETATM    9  C   UNK N   1      40.302  46.298  46.974  0.00  0.00     0.123 C 
HETATM   10  C   UNK N   1      40.941  45.158  46.203  0.00  0.00     0.183 C 
HETATM   11  O   UNK N   1      40.854  45.108  44.984  0.00  0.00    -0.290 OA
HETATM   12  C   UNK N   1      41.512  44.027  46.918  0.00  0.00     0.052 C 
HETATM   13  C   UNK N   1      41.513  44.012  48.243  0.00  0.00     0.014 C 
HETATM   14  C   UNK N   1      41.022  45.185  49.071  0.00  0.00     0.073 C 
HETATM   15  C   UNK N   1      39.815  44.761  49.923  0.00  0.00     0.050 C 
HETATM   16  C   UNK N   1      42.178  45.552  50.015  0.00  0.00     0.050 C 
HETATM   17  O   UNK N   1      40.705  46.376  48.342  0.00  0.00    -0.358 OA
HETATM   18  C   UNK N   1      38.774  46.131  46.888  0.00  0.00     0.055 C 
ENDBRANCH   8   9
ENDBRANCH   7   8
ENDBRANCH   6   7
ENDBRANCH   4   6
ENDBRANCH   1   3
BRANCH   1  19
HETATM   19  C   UNK N   1      36.141  50.109  43.086  0.00  0.00     0.116 C 
BRANCH  19  20
HETATM   20  C   UNK N   1      35.527  48.724  43.086  0.00  0.00    -0.080 C 
HETATM   21  C   UNK N   1      34.238  48.487  43.432  0.00  0.00    -0.019 C 
HETATM   22  C   UNK N   1      36.420  47.567  42.720  0.00  0.00     0.043 C 
BRANCH  21  23
HETATM   23  C   UNK N   1      33.213  49.555  43.770  0.00  0.00     0.068 C 
BRANCH  23  24
HETATM   24  C   UNK N   1      32.223  49.871  42.646  0.00  0.00    -0.018 A 
HETATM   25  C   UNK N   1      31.829  51.215  42.318  0.00  0.00     0.080 A 
HETATM   26  C   UNK N   1      30.864  51.420  41.302  0.00  0.00    -0.025 A 
HETATM   27  C   UNK N   1      30.319  50.336  40.606  0.00  0.00     0.046 A 
HETATM   28  C   UNK N   1      30.420  52.814  40.953  0.00  0.00     0.051 C 
HETATM   29  C   UNK N   1      30.715  49.036  40.902  0.00  0.00     0.066 A 
HETATM   30  C   UNK N   1      31.648  48.804  41.906  0.00  0.00     0.046 A 
BRANCH  25  31
HETATM   31  O   UNK N   1      32.321  52.349  42.912  0.00  0.00    -0.355 OA
HETATM   32  C   UNK N   1      32.031  52.925  44.129  0.00  0.00     0.210 C 
ENDBRANCH  25  31
BRANCH  29  33
HETATM   33  O   UNK N   1      30.196  47.990  40.225  0.00  0.00    -0.361 OA
HETATM   34  H   UNK N   1      30.759  47.334  39.789  0.00  0.00     0.217 HD
ENDBRANCH  29  33
ENDBRANCH  23  24
ENDBRANCH  21  23
ENDBRANCH  19  20
ENDBRANCH   1  19
TORSDOF 11
ENDMDL
MODEL 2
REMARK VINA RESULT:      -7.8      1.975      3.991
REMARK  11 active torsions:
REMARK  status: ('A' for Active; 'I' for Inactive)
REMARK    1  A    between atoms: C_9  and  C_10 
REMARK    2  A    between atoms: C_10  and  C_11 
REMARK    3  A    between atoms: C_11  and  C_12 
REMARK    4  A    between atoms: C_12  and  C_13 
REMARK    5  A    between atoms: C_14  and  C_15 
REMARK    6  A    between atoms: C_15  and  C_17 
REMARK    7  A    between atoms: C_17  and  C_18 
REMARK    8  A    between atoms: C_19  and  C_20 
REMARK    9  A    between atoms: C_20  and  C_21 
REMARK   10  A    between atoms: C_22  and  O_23 
REMARK   11  A    between atoms: C_27  and  O_29 
ROOT
HETATM    1  C   UNK N   1      38.901  49.064  45.102  0.00  0.00     0.153 C 
HETATM    2  O   UNK N   1      38.717  50.095  45.729  0.00  0.00    -0.293 OA
ENDROOT
BRANCH   1   3
HETATM    3  C   UNK N   1      40.157  48.280  45.271  0.00  0.00     0.052 C 
HETATM    4  C   UNK N   1      40.298  47.184  46.063  0.00  0.00    -0.080 C 
HETATM    5  C   UNK N   1      41.612  46.447  46.077  0.00  0.00     0.043 C 
BRANCH   4   6
HETATM    6  C   UNK N   1      39.202  46.654  46.971  0.00  0.00     0.034 C 
BRANCH   6   7
HETATM    7  C   UNK N   1      39.600  45.293  47.579  0.00  0.00     0.008 C 
BRANCH   7   8
HETATM    8  C   UNK N   1      39.444  45.316  49.108  0.00  0.00     0.046 C 
BRANCH   8   9
HETATM    9  C   UNK N   1      40.675  44.774  49.889  0.00  0.00     0.123 C 
HETATM   10  C   UNK N   1      41.623  45.915  50.211  0.00  0.00     0.183 C 
HETATM   11  O   UNK N   1      41.945  46.717  49.347  0.00  0.00    -0.290 OA
HETATM   12  C   UNK N   1      42.290  45.962  51.504  0.00  0.00     0.052 C 
HETATM   13  C   UNK N   1      42.037  45.034  52.415  0.00  0.00     0.014 C 
HETATM   14  C   UNK N   1      40.994  43.952  52.208  0.00  0.00     0.073 C 
HETATM   15  C   UNK N   1      41.659  42.566  52.224  0.00  0.00     0.050 C 
HETATM   16  C   UNK N   1      40.039  44.047  53.409  0.00  0.00     0.050 C 
HETATM   17  O   UNK N   1      40.181  44.083  51.037  0.00  0.00    -0.358 OA
HETATM   18  C   UNK N   1      41.416  43.790  48.965  0.00  0.00     0.055 C 
ENDBRANCH   8   9
ENDBRANCH   7   8
ENDBRANCH   6   7
ENDBRANCH   4   6
ENDBRANCH   1   3
BRANCH   1  19
HETATM   19  C   UNK N   1      37.802  48.583  44.190  0.00  0.00     0.116 C 
BRANCH  19  20
HETATM   20  C   UNK N   1      37.587  49.620  43.107  0.00  0.00    -0.080 C 
HETATM   21  C   UNK N   1      36.367  50.126  42.801  0.00  0.00    -0.019 C 
HETATM   22  C   UNK N   1      38.792  50.065  42.320  0.00  0.00     0.043 C 
BRANCH  21  23
HETATM   23  C   UNK N   1      35.080  49.812  43.541  0.00  0.00     0.068 C 
BRANCH  23  24
HETATM   24  C   UNK N   1      34.101  50.983  43.648  0.00  0.00    -0.018 A 
HETATM   25  C   UNK N   1      32.904  51.066  42.853  0.00  0.00     0.080 A 
HETATM   26  C   UNK N   1      32.079  52.210  42.970  0.00  0.00    -0.025 A 
HETATM   27  C   UNK N   1      32.404  53.237  43.863  0.00  0.00     0.046 A 
HETATM   28  C   UNK N   1      30.832  52.331  42.136  0.00  0.00     0.051 C 
HETATM   29  C   UNK N   1      33.546  53.151  44.651  0.00  0.00     0.066 A 
HETATM   30  C   UNK N   1      34.384  52.047  44.546  0.00  0.00     0.046 A 
BRANCH  25  31
HETATM   31  O   UNK N   1      32.474  50.107  41.973  0.00  0.00    -0.355 OA
HETATM   32  C   UNK N   1      31.805  48.922  42.189  0.00  0.00     0.210 C 
ENDBRANCH  25  31
BRANCH  29  33
HETATM   33  O   UNK N   1      33.856  54.137  45.520  0.00  0.00    -0.361 OA
HETATM   34  H   UNK N   1      33.769  54.020  46.477  0.00  0.00     0.217 HD
ENDBRANCH  29  33
ENDBRANCH  23  24
ENDBRANCH  21  23
ENDBRANCH  19  20
ENDBRANCH   1  19
TORSDOF 11
ENDMDL
MODEL 3
REMARK VINA RESULT:      -7.8      1.735      3.195
REMARK  11 active torsions:
REMARK  status: ('A' for Active; 'I' for Inactive)
REMARK    1  A    between atoms: C_9  and  C_10 
REMARK    2  A    between atoms: C_10  and  C_11 
REMARK    3  A    between atoms: C_11  and  C_12 
REMARK    4  A    between atoms: C_12  and  C_13 
REMARK    5  A    between atoms: C_14  and  C_15 
REMARK    6  A    between atoms: C_15  and  C_17 
REMARK    7  A    between atoms: C_17  and  C_18 
REMARK    8  A    between atoms: C_19  and  C_20 
REMARK    9  A    between atoms: C_20  and  C_21 
REMARK   10  A    between atoms: C_22  and  O_23 
REMARK   11  A    between atoms: C_27  and  O_29 
ROOT
HETATM    1  C   UNK N   1      39.491  48.687  45.062  0.00  0.00     0.153 C 
HETATM    2  O   UNK N   1      38.987  47.576  45.081  0.00  0.00    -0.293 OA
ENDROOT
BRANCH   1   3
HETATM    3  C   UNK N   1      40.965  48.860  45.195  0.00  0.00     0.052 C 
HETATM    4  C   UNK N   1      41.708  48.467  46.265  0.00  0.00    -0.080 C 
HETATM    5  C   UNK N   1      43.205  48.639  46.227  0.00  0.00     0.043 C 
BRANCH   4   6
HETATM    6  C   UNK N   1      41.115  47.873  47.530  0.00  0.00     0.034 C 
BRANCH   6   7
HETATM    7  C   UNK N   1      42.225  47.357  48.469  0.00  0.00     0.008 C 
BRANCH   7   8
HETATM    8  C   UNK N   1      41.701  46.210  49.349  0.00  0.00     0.046 C 
BRANCH   8   9
HETATM    9  C   UNK N   1      41.217  44.962  48.557  0.00  0.00     0.123 C 
HETATM   10  C   UNK N   1      39.716  45.036  48.344  0.00  0.00     0.183 C 
HETATM   11  O   UNK N   1      38.971  45.306  49.275  0.00  0.00    -0.290 OA
HETATM   12  C   UNK N   1      39.141  44.619  47.075  0.00  0.00     0.052 C 
HETATM   13  C   UNK N   1      39.930  44.215  46.090  0.00  0.00     0.014 C 
HETATM   14  C   UNK N   1      41.443  44.255  46.189  0.00  0.00     0.073 C 
HETATM   15  C   UNK N   1      42.017  42.833  46.082  0.00  0.00     0.050 C 
HETATM   16  C   UNK N   1      41.927  45.067  44.978  0.00  0.00     0.050 C 
HETATM   17  O   UNK N   1      41.977  44.905  47.349  0.00  0.00    -0.358 OA
HETATM   18  C   UNK N   1      41.513  43.720  49.419  0.00  0.00     0.055 C 
ENDBRANCH   8   9
ENDBRANCH   7   8
ENDBRANCH   6   7
ENDBRANCH   4   6
ENDBRANCH   1   3
BRANCH   1  19
HETATM   19  C   UNK N   1      38.586  49.873  44.852  0.00  0.00     0.116 C 
BRANCH  19  20
HETATM   20  C   UNK N   1      38.036  49.815  43.441  0.00  0.00    -0.080 C 
HETATM   21  C   UNK N   1      36.717  49.935  43.157  0.00  0.00    -0.019 C 
HETATM   22  C   UNK N   1      39.016  49.570  42.322  0.00  0.00     0.043 C 
BRANCH  21  23
HETATM   23  C   UNK N   1      35.628  50.236  44.172  0.00  0.00     0.068 C 
BRANCH  23  24
HETATM   24  C   UNK N   1      34.231  50.423  43.575  0.00  0.00    -0.018 A 
HETATM   25  C   UNK N   1      33.530  51.679  43.625  0.00  0.00     0.080 A 
HETATM   26  C   UNK N   1      32.217  51.754  43.102  0.00  0.00    -0.025 A 
HETATM   27  C   UNK N   1      31.615  50.634  42.519  0.00  0.00     0.046 A 
HETATM   28  C   UNK N   1      31.455  53.050  43.158  0.00  0.00     0.051 C 
HETATM   29  C   UNK N   1      32.297  49.424  42.447  0.00  0.00     0.066 A 
HETATM   30  C   UNK N   1      33.581  49.316  42.968  0.00  0.00     0.046 A 
BRANCH  25  31
HETATM   31  O   UNK N   1      34.035  52.844  44.142  0.00  0.00    -0.355 OA
HETATM   32  C   UNK N   1      33.753  53.504  45.318  0.00  0.00     0.210 C 
ENDBRANCH  25  31
BRANCH  29  33
HETATM   33  O   UNK N   1      31.720  48.345  41.877  0.00  0.00    -0.361 OA
HETATM   34  H   UNK N   1      30.812  48.081  42.085  0.00  0.00     0.217 HD
ENDBRANCH  29  33
ENDBRANCH  23  24
ENDBRANCH  21  23
ENDBRANCH  19  20
ENDBRANCH   1  19
TORSDOF 11
ENDMDL
MODEL 4
REMARK VINA RESULT:      -7.7      3.179      6.423
REMARK  11 active torsions:
REMARK  status: ('A' for Active; 'I' for Inactive)
REMARK    1  A    between atoms: C_9  and  C_10 
REMARK    2  A    between atoms: C_10  and  C_11 
REMARK    3  A    between atoms: C_11  and  C_12 
REMARK    4  A    between atoms: C_12  and  C_13 
REMARK    5  A    between atoms: C_14  and  C_15 
REMARK    6  A    between atoms: C_15  and  C_17 
REMARK    7  A    between atoms: C_17  and  C_18 
REMARK    8  A    between atoms: C_19  and  C_20 
REMARK    9  A    between atoms: C_20  and  C_21 
REMARK   10  A    between atoms: C_22  and  O_23 
REMARK   11  A    between atoms: C_27  and  O_29 
ROOT
HETATM    1  C   UNK N   1      32.860  52.597  44.607  0.00  0.00     0.153 C 
HETATM    2  O   UNK N   1      33.904  52.204  45.103  0.00  0.00    -0.293 OA
ENDROOT
BRANCH   1   3
HETATM    3  C   UNK N   1      32.291  51.932  43.401  0.00  0.00     0.052 C 
HETATM    4  C   UNK N   1      32.431  50.616  43.090  0.00  0.00    -0.080 C 
HETATM    5  C   UNK N   1      31.733  50.066  41.872  0.00  0.00     0.043 C 
BRANCH   4   6
HETATM    6  C   UNK N   1      33.280  49.646  43.892  0.00  0.00     0.034 C 
BRANCH   6   7
HETATM    7  C   UNK N   1      34.459  49.118  43.050  0.00  0.00     0.008 C 
BRANCH   7   8
HETATM    8  C   UNK N   1      35.612  50.136  43.033  0.00  0.00     0.046 C 
BRANCH   8   9
HETATM    9  C   UNK N   1      37.030  49.504  43.125  0.00  0.00     0.123 C 
HETATM   10  C   UNK N   1      37.951  50.156  42.111  0.00  0.00     0.183 C 
HETATM   11  O   UNK N   1      37.591  50.307  40.953  0.00  0.00    -0.290 OA
HETATM   12  C   UNK N   1      39.331  50.450  42.466  0.00  0.00     0.052 C 
HETATM   13  C   UNK N   1      39.772  50.187  43.688  0.00  0.00     0.014 C 
HETATM   14  C   UNK N   1      38.863  49.671  44.788  0.00  0.00     0.073 C 
HETATM   15  C   UNK N   1      39.330  48.281  45.249  0.00  0.00     0.050 C 
HETATM   16  C   UNK N   1      39.019  50.650  45.963  0.00  0.00     0.050 C 
HETATM   17  O   UNK N   1      37.466  49.633  44.479  0.00  0.00    -0.358 OA
HETATM   18  C   UNK N   1      36.901  48.014  42.759  0.00  0.00     0.055 C 
ENDBRANCH   8   9
ENDBRANCH   7   8
ENDBRANCH   6   7
ENDBRANCH   4   6
ENDBRANCH   1   3
BRANCH   1  19
HETATM   19  C   UNK N   1      32.143  53.740  45.275  0.00  0.00     0.116 C 
BRANCH  19  20
HETATM   20  C   UNK N   1      32.382  54.998  44.465  0.00  0.00    -0.080 C 
HETATM   21  C   UNK N   1      31.479  55.492  43.583  0.00  0.00    -0.019 C 
HETATM   22  C   UNK N   1      33.709  55.692  44.634  0.00  0.00     0.043 C 
BRANCH  21  23
HETATM   23  C   UNK N   1      30.088  54.930  43.349  0.00  0.00     0.068 C 
BRANCH  23  24
HETATM   24  C   UNK N   1      29.737  54.679  41.881  0.00  0.00    -0.018 A 
HETATM   25  C   UNK N   1      28.382  54.506  41.429  0.00  0.00     0.080 A 
HETATM   26  C   UNK N   1      28.145  54.220  40.063  0.00  0.00    -0.025 A 
HETATM   27  C   UNK N   1      29.207  54.132  39.156  0.00  0.00     0.046 A 
HETATM   28  C   UNK N   1      26.739  54.016  39.567  0.00  0.00     0.051 C 
HETATM   29  C   UNK N   1      30.516  54.322  39.584  0.00  0.00     0.066 A 
HETATM   30  C   UNK N   1      30.781  54.587  40.922  0.00  0.00     0.046 A 
BRANCH  25  31
HETATM   31  O   UNK N   1      27.268  54.603  42.221  0.00  0.00    -0.355 OA
HETATM   32  C   UNK N   1      26.622  55.707  42.736  0.00  0.00     0.210 C 
ENDBRANCH  25  31
BRANCH  29  33
HETATM   33  O   UNK N   1      31.541  54.246  38.708  0.00  0.00    -0.361 OA
HETATM   34  H   UNK N   1      32.455  54.417  38.976  0.00  0.00     0.217 HD
ENDBRANCH  29  33
ENDBRANCH  23  24
ENDBRANCH  21  23
ENDBRANCH  19  20
ENDBRANCH   1  19
TORSDOF 11
ENDMDL
MODEL 5
REMARK VINA RESULT:      -7.4     14.217     16.943
REMARK  11 active torsions:
REMARK  status: ('A' for Active; 'I' for Inactive)
REMARK    1  A    between atoms: C_9  and  C_10 
REMARK    2  A    between atoms: C_10  and  C_11 
REMARK    3  A    between atoms: C_11  and  C_12 
REMARK    4  A    between atoms: C_12  and  C_13 
REMARK    5  A    between atoms: C_14  and  C_15 
REMARK    6  A    between atoms: C_15  and  C_17 
REMARK    7  A    between atoms: C_17  and  C_18 
REMARK    8  A    between atoms: C_19  and  C_20 
REMARK    9  A    between atoms: C_20  and  C_21 
REMARK   10  A    between atoms: C_22  and  O_23 
REMARK   11  A    between atoms: C_27  and  O_29 
ROOT
HETATM    1  C   UNK N   1      32.310  43.464  58.258  0.00  0.00     0.153 C 
HETATM    2  O   UNK N   1      33.171  42.825  57.674  0.00  0.00    -0.293 OA
ENDROOT
BRANCH   1   3
HETATM    3  C   UNK N   1      31.829  43.046  59.605  0.00  0.00     0.052 C 
HETATM    4  C   UNK N   1      32.598  42.972  60.724  0.00  0.00    -0.080 C 
HETATM    5  C   UNK N   1      31.956  42.605  62.038  0.00  0.00     0.043 C 
BRANCH   4   6
HETATM    6  C   UNK N   1      34.096  43.218  60.736  0.00  0.00     0.034 C 
BRANCH   6   7
HETATM    7  C   UNK N   1      34.516  44.005  61.994  0.00  0.00     0.008 C 
BRANCH   7   8
HETATM    8  C   UNK N   1      35.929  44.586  61.824  0.00  0.00     0.046 C 
BRANCH   8   9
HETATM    9  C   UNK N   1      36.412  45.464  63.013  0.00  0.00     0.123 C 
HETATM   10  C   UNK N   1      37.891  45.767  62.863  0.00  0.00     0.183 C 
HETATM   11  O   UNK N   1      38.684  44.874  62.601  0.00  0.00    -0.290 OA
HETATM   12  C   UNK N   1      38.400  47.088  63.198  0.00  0.00     0.052 C 
HETATM   13  C   UNK N   1      37.566  48.039  63.593  0.00  0.00     0.014 C 
HETATM   14  C   UNK N   1      36.062  47.843  63.625  0.00  0.00     0.073 C 
HETATM   15  C   UNK N   1      35.542  47.980  65.065  0.00  0.00     0.050 C 
HETATM   16  C   UNK N   1      35.467  48.982  62.783  0.00  0.00     0.050 C 
HETATM   17  O   UNK N   1      35.579  46.623  63.051  0.00  0.00    -0.358 OA
HETATM   18  C   UNK N   1      36.225  44.644  64.304  0.00  0.00     0.055 C 
ENDBRANCH   8   9
ENDBRANCH   7   8
ENDBRANCH   6   7
ENDBRANCH   4   6
ENDBRANCH   1   3
BRANCH   1  19
HETATM   19  C   UNK N   1      31.782  44.710  57.597  0.00  0.00     0.116 C 
BRANCH  19  20
HETATM   20  C   UNK N   1      30.268  44.679  57.650  0.00  0.00    -0.080 C 
HETATM   21  C   UNK N   1      29.535  45.570  58.362  0.00  0.00    -0.019 C 
HETATM   22  C   UNK N   1      29.568  43.573  56.903  0.00  0.00     0.043 C 
BRANCH  21  23
HETATM   23  C   UNK N   1      30.099  46.761  59.115  0.00  0.00     0.068 C 
BRANCH  23  24
HETATM   24  C   UNK N   1      30.031  48.089  58.356  0.00  0.00    -0.018 A 
HETATM   25  C   UNK N   1      29.340  49.241  58.874  0.00  0.00     0.080 A 
HETATM   26  C   UNK N   1      29.275  50.414  58.084  0.00  0.00    -0.025 A 
HETATM   27  C   UNK N   1      29.893  50.467  56.830  0.00  0.00     0.046 A 
HETATM   28  C   UNK N   1      28.543  51.626  58.593  0.00  0.00     0.051 C 
HETATM   29  C   UNK N   1      30.582  49.365  56.336  0.00  0.00     0.066 A 
HETATM   30  C   UNK N   1      30.649  48.194  57.082  0.00  0.00     0.046 A 
BRANCH  25  31
HETATM   31  O   UNK N   1      28.729  49.310  60.098  0.00  0.00    -0.355 OA
HETATM   32  C   UNK N   1      27.521  48.807  60.531  0.00  0.00     0.210 C 
ENDBRANCH  25  31
BRANCH  29  33
HETATM   33  O   UNK N   1      31.186  49.418  55.130  0.00  0.00    -0.361 OA
HETATM   34  H   UNK N   1      31.228  48.648  54.545  0.00  0.00     0.217 HD
ENDBRANCH  29  33
ENDBRANCH  23  24
ENDBRANCH  21  23
ENDBRANCH  19  20
ENDBRANCH   1  19
TORSDOF 11
ENDMDL
MODEL 6
REMARK VINA RESULT:      -7.3      1.798      3.883
REMARK  11 active torsions:
REMARK  status: ('A' for Active; 'I' for Inactive)
REMARK    1  A    between atoms: C_9  and  C_10 
REMARK    2  A    between atoms: C_10  and  C_11 
REMARK    3  A    between atoms: C_11  and  C_12 
REMARK    4  A    between atoms: C_12  and  C_13 
REMARK    5  A    between atoms: C_14  and  C_15 
REMARK    6  A    between atoms: C_15  and  C_17 
REMARK    7  A    between atoms: C_17  and  C_18 
REMARK    8  A    between atoms: C_19  and  C_20 
REMARK    9  A    between atoms: C_20  and  C_21 
REMARK   10  A    between atoms: C_22  and  O_23 
REMARK   11  A    between atoms: C_27  and  O_29 
ROOT
HETATM    1  C   UNK N   1      39.775  48.760  45.105  0.00  0.00     0.153 C 
HETATM    2  O   UNK N   1      39.247  47.660  45.049  0.00  0.00    -0.293 OA
ENDROOT
BRANCH   1   3
HETATM    3  C   UNK N   1      41.251  48.892  45.254  0.00  0.00     0.052 C 
HETATM    4  C   UNK N   1      41.965  48.531  46.354  0.00  0.00    -0.080 C 
HETATM    5  C   UNK N   1      43.467  48.653  46.333  0.00  0.00     0.043 C 
BRANCH   4   6
HETATM    6  C   UNK N   1      41.334  48.023  47.638  0.00  0.00     0.034 C 
BRANCH   6   7
HETATM    7  C   UNK N   1      42.379  47.310  48.521  0.00  0.00     0.008 C 
BRANCH   7   8
HETATM    8  C   UNK N   1      41.715  46.211  49.366  0.00  0.00     0.046 C 
BRANCH   8   9
HETATM    9  C   UNK N   1      41.220  44.983  48.550  0.00  0.00     0.123 C 
HETATM   10  C   UNK N   1      39.719  45.075  48.340  0.00  0.00     0.183 C 
HETATM   11  O   UNK N   1      38.977  45.332  49.277  0.00  0.00    -0.290 OA
HETATM   12  C   UNK N   1      39.139  44.689  47.063  0.00  0.00     0.052 C 
HETATM   13  C   UNK N   1      39.923  44.298  46.069  0.00  0.00     0.014 C 
HETATM   14  C   UNK N   1      41.437  44.323  46.168  0.00  0.00     0.073 C 
HETATM   15  C   UNK N   1      41.999  42.899  46.031  0.00  0.00     0.050 C 
HETATM   16  C   UNK N   1      41.927  45.156  44.973  0.00  0.00     0.050 C 
HETATM   17  O   UNK N   1      41.977  44.944  47.339  0.00  0.00    -0.358 OA
HETATM   18  C   UNK N   1      41.505  43.722  49.385  0.00  0.00     0.055 C 
ENDBRANCH   8   9
ENDBRANCH   7   8
ENDBRANCH   6   7
ENDBRANCH   4   6
ENDBRANCH   1   3
BRANCH   1  19
HETATM   19  C   UNK N   1      38.896  49.976  44.971  0.00  0.00     0.116 C 
BRANCH  19  20
HETATM   20  C   UNK N   1      38.278  49.973  43.587  0.00  0.00    -0.080 C 
HETATM   21  C   UNK N   1      36.943  50.068  43.375  0.00  0.00    -0.019 C 
HETATM   22  C   UNK N   1      39.206  49.814  42.411  0.00  0.00     0.043 C 
BRANCH  21  23
HETATM   23  C   UNK N   1      35.899  50.285  44.456  0.00  0.00     0.068 C 
BRANCH  23  24
HETATM   24  C   UNK N   1      34.494  50.600  43.936  0.00  0.00    -0.018 A 
HETATM   25  C   UNK N   1      33.654  49.604  43.325  0.00  0.00     0.080 A 
HETATM   26  C   UNK N   1      32.390  49.989  42.818  0.00  0.00    -0.025 A 
HETATM   27  C   UNK N   1      31.948  51.311  42.929  0.00  0.00     0.046 A 
HETATM   28  C   UNK N   1      31.500  48.971  42.158  0.00  0.00     0.051 C 
HETATM   29  C   UNK N   1      32.745  52.272  43.540  0.00  0.00     0.066 A 
HETATM   30  C   UNK N   1      33.999  51.927  44.032  0.00  0.00     0.046 A 
BRANCH  25  31
HETATM   31  O   UNK N   1      33.972  48.277  43.193  0.00  0.00    -0.355 OA
HETATM   32  C   UNK N   1      35.194  47.653  43.062  0.00  0.00     0.210 C 
ENDBRANCH  25  31
BRANCH  29  33
HETATM   33  O   UNK N   1      32.316  53.547  43.656  0.00  0.00    -0.361 OA
HETATM   34  H   UNK N   1      32.071  53.928  44.511  0.00  0.00     0.217 HD
ENDBRANCH  29  33
ENDBRANCH  23  24
ENDBRANCH  21  23
ENDBRANCH  19  20
ENDBRANCH   1  19
TORSDOF 11
ENDMDL
MODEL 7
REMARK VINA RESULT:      -7.1      1.630      2.520
REMARK  11 active torsions:
REMARK  status: ('A' for Active; 'I' for Inactive)
REMARK    1  A    between atoms: C_9  and  C_10 
REMARK    2  A    between atoms: C_10  and  C_11 
REMARK    3  A    between atoms: C_11  and  C_12 
REMARK    4  A    between atoms: C_12  and  C_13 
REMARK    5  A    between atoms: C_14  and  C_15 
REMARK    6  A    between atoms: C_15  and  C_17 
REMARK    7  A    between atoms: C_17  and  C_18 
REMARK    8  A    between atoms: C_19  and  C_20 
REMARK    9  A    between atoms: C_20  and  C_21 
REMARK   10  A    between atoms: C_22  and  O_23 
REMARK   11  A    between atoms: C_27  and  O_29 
ROOT
HETATM    1  C   UNK N   1      39.688  49.013  44.795  0.00  0.00     0.153 C 
HETATM    2  O   UNK N   1      39.438  47.840  44.567  0.00  0.00    -0.293 OA
ENDROOT
BRANCH   1   3
HETATM    3  C   UNK N   1      41.075  49.449  45.121  0.00  0.00     0.052 C 
HETATM    4  C   UNK N   1      42.026  48.671  45.705  0.00  0.00    -0.080 C 
HETATM    5  C   UNK N   1      43.412  49.226  45.906  0.00  0.00     0.043 C 
BRANCH   4   6
HETATM    6  C   UNK N   1      41.772  47.258  46.197  0.00  0.00     0.034 C 
BRANCH   6   7
HETATM    7  C   UNK N   1      41.207  47.267  47.633  0.00  0.00     0.008 C 
BRANCH   7   8
HETATM    8  C   UNK N   1      39.889  46.478  47.701  0.00  0.00     0.046 C 
BRANCH   8   9
HETATM    9  C   UNK N   1      39.978  45.145  48.498  0.00  0.00     0.123 C 
HETATM   10  C   UNK N   1      40.905  44.179  47.784  0.00  0.00     0.183 C 
HETATM   11  O   UNK N   1      40.795  43.988  46.581  0.00  0.00    -0.290 OA
HETATM   12  C   UNK N   1      41.817  43.345  48.552  0.00  0.00     0.052 C 
HETATM   13  C   UNK N   1      41.868  43.459  49.871  0.00  0.00     0.014 C 
HETATM   14  C   UNK N   1      41.074  44.506  50.630  0.00  0.00     0.073 C 
HETATM   15  C   UNK N   1      40.082  43.824  51.587  0.00  0.00     0.050 C 
HETATM   16  C   UNK N   1      42.096  45.291  51.467  0.00  0.00     0.050 C 
HETATM   17  O   UNK N   1      40.385  45.471  49.828  0.00  0.00    -0.358 OA
HETATM   18  C   UNK N   1      38.570  44.521  48.520  0.00  0.00     0.055 C 
ENDBRANCH   8   9
ENDBRANCH   7   8
ENDBRANCH   6   7
ENDBRANCH   4   6
ENDBRANCH   1   3
BRANCH   1  19
HETATM   19  C   UNK N   1      38.565  50.011  44.689  0.00  0.00     0.116 C 
BRANCH  19  20
HETATM   20  C   UNK N   1      38.015  49.969  43.278  0.00  0.00    -0.080 C 
HETATM   21  C   UNK N   1      36.688  49.931  43.003  0.00  0.00    -0.019 C 
HETATM   22  C   UNK N   1      39.008  49.928  42.145  0.00  0.00     0.043 C 
BRANCH  21  23
HETATM   23  C   UNK N   1      35.579  50.019  44.035  0.00  0.00     0.068 C 
BRANCH  23  24
HETATM   24  C   UNK N   1      34.181  50.250  43.455  0.00  0.00    -0.018 A 
HETATM   25  C   UNK N   1      33.517  51.525  43.521  0.00  0.00     0.080 A 
HETATM   26  C   UNK N   1      32.202  51.641  43.012  0.00  0.00    -0.025 A 
HETATM   27  C   UNK N   1      31.562  50.543  42.427  0.00  0.00     0.046 A 
HETATM   28  C   UNK N   1      31.477  52.958  43.085  0.00  0.00     0.051 C 
HETATM   29  C   UNK N   1      32.208  49.315  42.339  0.00  0.00     0.066 A 
HETATM   30  C   UNK N   1      33.493  49.167  42.846  0.00  0.00     0.046 A 
BRANCH  25  31
HETATM   31  O   UNK N   1      34.060  52.671  44.040  0.00  0.00    -0.355 OA
HETATM   32  C   UNK N   1      33.712  53.409  45.151  0.00  0.00     0.210 C 
ENDBRANCH  25  31
BRANCH  29  33
HETATM   33  O   UNK N   1      31.595  48.257  41.768  0.00  0.00    -0.361 OA
HETATM   34  H   UNK N   1      30.701  47.984  42.023  0.00  0.00     0.217 HD
ENDBRANCH  29  33
ENDBRANCH  23  24
ENDBRANCH  21  23
ENDBRANCH  19  20
ENDBRANCH   1  19
TORSDOF 11
ENDMDL
MODEL 8
REMARK VINA RESULT:      -7.1     14.481     19.080
REMARK  11 active torsions:
REMARK  status: ('A' for Active; 'I' for Inactive)
REMARK    1  A    between atoms: C_9  and  C_10 
REMARK    2  A    between atoms: C_10  and  C_11 
REMARK    3  A    between atoms: C_11  and  C_12 
REMARK    4  A    between atoms: C_12  and  C_13 
REMARK    5  A    between atoms: C_14  and  C_15 
REMARK    6  A    between atoms: C_15  and  C_17 
REMARK    7  A    between atoms: C_17  and  C_18 
REMARK    8  A    between atoms: C_19  and  C_20 
REMARK    9  A    between atoms: C_20  and  C_21 
REMARK   10  A    between atoms: C_22  and  O_23 
REMARK   11  A    between atoms: C_27  and  O_29 
ROOT
HETATM    1  C   UNK N   1      31.500  43.562  60.721  0.00  0.00     0.153 C 
HETATM    2  O   UNK N   1      31.455  44.689  61.187  0.00  0.00    -0.293 OA
ENDROOT
BRANCH   1   3
HETATM    3  C   UNK N   1      30.607  43.163  59.597  0.00  0.00     0.052 C 
HETATM    4  C   UNK N   1      30.722  43.593  58.312  0.00  0.00    -0.080 C 
HETATM    5  C   UNK N   1      29.789  43.045  57.263  0.00  0.00     0.043 C 
BRANCH   4   6
HETATM    6  C   UNK N   1      31.737  44.627  57.857  0.00  0.00     0.034 C 
BRANCH   6   7
HETATM    7  C   UNK N   1      31.057  45.985  57.587  0.00  0.00     0.008 C 
BRANCH   7   8
HETATM    8  C   UNK N   1      29.730  46.091  58.358  0.00  0.00     0.046 C 
BRANCH   8   9
HETATM    9  C   UNK N   1      29.033  47.476  58.252  0.00  0.00     0.123 C 
HETATM   10  C   UNK N   1      29.225  48.250  59.543  0.00  0.00     0.183 C 
HETATM   11  O   UNK N   1      29.020  47.714  60.623  0.00  0.00    -0.290 OA
HETATM   12  C   UNK N   1      29.488  49.680  59.502  0.00  0.00     0.052 C 
HETATM   13  C   UNK N   1      29.602  50.300  58.336  0.00  0.00     0.014 C 
HETATM   14  C   UNK N   1      29.564  49.559  57.013  0.00  0.00     0.073 C 
HETATM   15  C   UNK N   1      28.365  50.034  56.176  0.00  0.00     0.050 C 
HETATM   16  C   UNK N   1      30.856  49.944  56.273  0.00  0.00     0.050 C 
HETATM   17  O   UNK N   1      29.559  48.130  57.096  0.00  0.00    -0.358 OA
HETATM   18  C   UNK N   1      27.525  47.227  58.069  0.00  0.00     0.055 C 
ENDBRANCH   8   9
ENDBRANCH   7   8
ENDBRANCH   6   7
ENDBRANCH   4   6
ENDBRANCH   1   3
BRANCH   1  19
HETATM   19  C   UNK N   1      32.515  42.602  61.283  0.00  0.00     0.116 C 
BRANCH  19  20
HETATM   20  C   UNK N   1      33.849  42.865  60.613  0.00  0.00    -0.080 C 
HETATM   21  C   UNK N   1      34.813  43.641  61.166  0.00  0.00    -0.019 C 
HETATM   22  C   UNK N   1      34.075  42.260  59.252  0.00  0.00     0.043 C 
BRANCH  21  23
HETATM   23  C   UNK N   1      34.745  44.268  62.547  0.00  0.00     0.068 C 
BRANCH  23  24
HETATM   24  C   UNK N   1      35.499  45.592  62.687  0.00  0.00    -0.018 A 
HETATM   25  C   UNK N   1      34.845  46.819  63.061  0.00  0.00     0.080 A 
HETATM   26  C   UNK N   1      35.603  48.013  63.112  0.00  0.00    -0.025 A 
HETATM   27  C   UNK N   1      36.973  48.002  62.832  0.00  0.00     0.046 A 
HETATM   28  C   UNK N   1      34.940  49.313  63.481  0.00  0.00     0.051 C 
HETATM   29  C   UNK N   1      37.615  46.816  62.495  0.00  0.00     0.066 A 
HETATM   30  C   UNK N   1      36.893  45.631  62.420  0.00  0.00     0.046 A 
BRANCH  25  31
HETATM   31  O   UNK N   1      33.519  46.938  63.386  0.00  0.00    -0.355 OA
HETATM   32  C   UNK N   1      32.836  46.580  64.528  0.00  0.00     0.210 C 
ENDBRANCH  25  31
BRANCH  29  33
HETATM   33  O   UNK N   1      38.939  46.803  62.233  0.00  0.00    -0.361 OA
HETATM   34  H   UNK N   1      39.338  47.402  61.586  0.00  0.00     0.217 HD
ENDBRANCH  29  33
ENDBRANCH  23  24
ENDBRANCH  21  23
ENDBRANCH  19  20
ENDBRANCH   1  19
TORSDOF 11
ENDMDL
MODEL 9
REMARK VINA RESULT:      -6.9     13.527     16.480
REMARK  11 active torsions:
REMARK  status: ('A' for Active; 'I' for Inactive)
REMARK    1  A    between atoms: C_9  and  C_10 
REMARK    2  A    between atoms: C_10  and  C_11 
REMARK    3  A    between atoms: C_11  and  C_12 
REMARK    4  A    between atoms: C_12  and  C_13 
REMARK    5  A    between atoms: C_14  and  C_15 
REMARK    6  A    between atoms: C_15  and  C_17 
REMARK    7  A    between atoms: C_17  and  C_18 
REMARK    8  A    between atoms: C_19  and  C_20 
REMARK    9  A    between atoms: C_20  and  C_21 
REMARK   10  A    between atoms: C_22  and  O_23 
REMARK   11  A    between atoms: C_27  and  O_29 
ROOT
HETATM    1  C   UNK N   1      29.917  43.244  59.827  0.00  0.00     0.153 C 
HETATM    2  O   UNK N   1      30.307  42.093  59.716  0.00  0.00    -0.293 OA
ENDROOT
BRANCH   1   3
HETATM    3  C   UNK N   1      28.471  43.547  60.017  0.00  0.00     0.052 C 
HETATM    4  C   UNK N   1      27.558  43.682  59.018  0.00  0.00    -0.080 C 
HETATM    5  C   UNK N   1      26.110  43.914  59.366  0.00  0.00     0.043 C 
BRANCH   4   6
HETATM    6  C   UNK N   1      27.912  43.635  57.542  0.00  0.00     0.034 C 
BRANCH   6   7
HETATM    7  C   UNK N   1      27.948  42.181  57.029  0.00  0.00     0.008 C 
BRANCH   7   8
HETATM    8  C   UNK N   1      29.335  41.841  56.459  0.00  0.00     0.046 C 
BRANCH   8   9
HETATM    9  C   UNK N   1      29.348  41.549  54.932  0.00  0.00     0.123 C 
HETATM   10  C   UNK N   1      28.834  40.144  54.672  0.00  0.00     0.183 C 
HETATM   11  O   UNK N   1      29.256  39.200  55.324  0.00  0.00    -0.290 OA
HETATM   12  C   UNK N   1      27.967  39.887  53.532  0.00  0.00     0.052 C 
HETATM   13  C   UNK N   1      27.591  40.886  52.746  0.00  0.00     0.014 C 
HETATM   14  C   UNK N   1      27.951  42.330  53.036  0.00  0.00     0.073 C 
HETATM   15  C   UNK N   1      28.817  42.897  51.899  0.00  0.00     0.050 C 
HETATM   16  C   UNK N   1      26.623  43.103  53.066  0.00  0.00     0.050 C 
HETATM   17  O   UNK N   1      28.588  42.576  54.295  0.00  0.00    -0.358 OA
HETATM   18  C   UNK N   1      30.812  41.613  54.457  0.00  0.00     0.055 C 
ENDBRANCH   8   9
ENDBRANCH   7   8
ENDBRANCH   6   7
ENDBRANCH   4   6
ENDBRANCH   1   3
BRANCH   1  19
HETATM   19  C   UNK N   1      30.945  44.345  59.812  0.00  0.00     0.116 C 
BRANCH  19  20
HETATM   20  C   UNK N   1      31.248  44.702  58.371  0.00  0.00    -0.080 C 
HETATM   21  C   UNK N   1      30.677  45.754  57.735  0.00  0.00    -0.019 C 
HETATM   22  C   UNK N   1      32.198  43.807  57.617  0.00  0.00     0.043 C 
BRANCH  21  23
HETATM   23  C   UNK N   1      29.748  46.767  58.380  0.00  0.00     0.068 C 
BRANCH  23  24
HETATM   24  C   UNK N   1      29.586  48.075  57.602  0.00  0.00    -0.018 A 
HETATM   25  C   UNK N   1      28.315  48.732  57.450  0.00  0.00     0.080 A 
HETATM   26  C   UNK N   1      28.239  49.908  56.666  0.00  0.00    -0.025 A 
HETATM   27  C   UNK N   1      29.385  50.443  56.068  0.00  0.00     0.046 A 
HETATM   28  C   UNK N   1      26.918  50.604  56.475  0.00  0.00     0.051 C 
HETATM   29  C   UNK N   1      30.620  49.826  56.232  0.00  0.00     0.066 A 
HETATM   30  C   UNK N   1      30.722  48.661  56.982  0.00  0.00     0.046 A 
BRANCH  25  31
HETATM   31  O   UNK N   1      27.139  48.314  58.016  0.00  0.00    -0.355 OA
HETATM   32  C   UNK N   1      26.249  47.336  57.625  0.00  0.00     0.210 C 
ENDBRANCH  25  31
BRANCH  29  33
HETATM   33  O   UNK N   1      31.727  50.347  55.663  0.00  0.00    -0.361 OA
HETATM   34  H   UNK N   1      31.679  50.947  54.904  0.00  0.00     0.217 HD
ENDBRANCH  29  33
ENDBRANCH  23  24
ENDBRANCH  21  23
ENDBRANCH  19  20
ENDBRANCH   1  19
TORSDOF 11
ENDMDL
