MODEL 1
REMARK VINA RESULT:      -6.5      0.000      0.000
REMARK  3 active torsions:
REMARK  status: ('A' for Active; 'I' for Inactive)
REMARK    1  A    between atoms: C_5  and  C_7 
REMARK    2  A    between atoms: C_9  and  O_10 
REMARK    3  A    between atoms: C_17  and  O_18 
ROOT
HETATM    1  C   UNK N   1      34.042  51.243  44.193  0.00  0.00     0.028 C 
HETATM    2  C   UNK N   1      32.586  51.353  43.649  0.00  0.00    -0.005 C 
HETATM    3  C   UNK N   1      32.116  52.799  44.122  0.00  0.00     0.070 C 
HETATM    4  C   UNK N   1      31.526  53.686  42.949  0.00  0.00     0.025 C 
HETATM    5  C   UNK N   1      30.518  52.875  42.082  0.00  0.00     0.001 C 
HETATM    6  C   UNK N   1      29.784  53.736  40.965  0.00  0.00    -0.036 C 
HETATM    7  C   UNK N   1      29.182  55.037  41.615  0.00  0.00    -0.004 C 
HETATM    8  C   UNK N   1      28.520  55.964  40.553  0.00  0.00     0.037 C 
HETATM    9  C   UNK N   1      29.462  56.338  39.388  0.00  0.00     0.118 C 
HETATM   10  C   UNK N   1      30.056  55.068  38.757  0.00  0.00     0.032 C 
HETATM   11  C   UNK N   1      30.752  54.177  39.806  0.00  0.00     0.012 C 
HETATM   12  C   UNK N   1      30.241  55.816  42.436  0.00  0.00     0.006 C 
HETATM   13  C   UNK N   1      30.823  54.940  43.531  0.00  0.00     0.008 C 
HETATM   14  C   UNK N   1      28.635  52.853  40.393  0.00  0.00     0.016 C 
HETATM   15  C   UNK N   1      31.166  51.564  41.521  0.00  0.00     0.007 C 
HETATM   16  C   UNK N   1      32.559  51.272  42.099  0.00  0.00     0.013 C 
HETATM   17  C   UNK N   1      33.414  53.446  44.704  0.00  0.00     0.040 C 
HETATM   18  C   UNK N   1      34.562  52.674  44.079  0.00  0.00     0.013 C 
HETATM   19  C   UNK N   1      31.713  50.202  44.213  0.00  0.00     0.019 C 
ENDROOT
BRANCH   1  20
HETATM   20  C   UNK N   1      34.935  50.182  43.576  0.00  0.00    -0.045 A 
HETATM   21  C   UNK N   1      34.520  48.738  43.342  0.00  0.00     0.213 A 
HETATM   22  O   UNK N   1      35.666  48.171  42.801  0.00  0.00    -0.314 OA
HETATM   23  C   UNK N   1      36.640  49.088  42.706  0.00  0.00     0.283 A 
HETATM   24  O   UNK N   1      37.754  48.850  42.269  0.00  0.00    -0.260 OA
HETATM   25  C   UNK N   1      36.194  50.358  43.197  0.00  0.00     0.087 A 
ENDBRANCH   1  20
BRANCH   3  26
HETATM   26  O   UNK N   1      31.146  52.659  45.144  0.00  0.00    -0.389 OA
HETATM   27  H   UNK N   1      30.775  53.552  45.371  0.00  0.00     0.210 HD
ENDBRANCH   3  26
BRANCH   9  28
HETATM   28  O   UNK N   1      30.482  57.193  39.831  0.00  0.00    -0.396 OA
HETATM   29  H   UNK N   1      30.066  57.846  40.451  0.00  0.00     0.210 HD
ENDBRANCH   9  28
TORSDOF 3
ENDMDL
MODEL 2
REMARK VINA RESULT:      -6.1     18.902     21.487
REMARK  3 active torsions:
REMARK  status: ('A' for Active; 'I' for Inactive)
REMARK    1  A    between atoms: C_5  and  C_7 
REMARK    2  A    between atoms: C_9  and  O_10 
REMARK    3  A    between atoms: C_17  and  O_18 
ROOT
HETATM    1  C   UNK N   1      35.526  46.567  63.841  0.00  0.00     0.028 C 
HETATM    2  C   UNK N   1      35.145  45.129  63.378  0.00  0.00    -0.005 C 
HETATM    3  C   UNK N   1      33.560  45.096  63.516  0.00  0.00     0.070 C 
HETATM    4  C   UNK N   1      32.821  44.605  62.203  0.00  0.00     0.025 C 
HETATM    5  C   UNK N   1      33.496  43.327  61.621  0.00  0.00     0.001 C 
HETATM    6  C   UNK N   1      32.731  42.698  60.378  0.00  0.00    -0.036 C 
HETATM    7  C   UNK N   1      31.207  42.525  60.731  0.00  0.00    -0.004 C 
HETATM    8  C   UNK N   1      30.387  41.988  59.520  0.00  0.00     0.037 C 
HETATM    9  C   UNK N   1      30.544  42.842  58.242  0.00  0.00     0.118 C 
HETATM   10  C   UNK N   1      32.034  43.018  57.901  0.00  0.00     0.032 C 
HETATM   11  C   UNK N   1      32.831  43.594  59.089  0.00  0.00     0.012 C 
HETATM   12  C   UNK N   1      30.587  43.838  61.272  0.00  0.00     0.006 C 
HETATM   13  C   UNK N   1      31.328  44.314  62.507  0.00  0.00     0.008 C 
HETATM   14  C   UNK N   1      33.371  41.303  60.109  0.00  0.00     0.016 C 
HETATM   15  C   UNK N   1      35.023  43.553  61.355  0.00  0.00     0.007 C 
HETATM   16  C   UNK N   1      35.549  44.890  61.898  0.00  0.00     0.013 C 
HETATM   17  C   UNK N   1      33.179  46.576  63.842  0.00  0.00     0.040 C 
HETATM   18  C   UNK N   1      34.349  47.409  63.352  0.00  0.00     0.013 C 
HETATM   19  C   UNK N   1      35.866  44.073  64.256  0.00  0.00     0.019 C 
ENDROOT
BRANCH   1  20
HETATM   20  C   UNK N   1      36.897  47.084  63.443  0.00  0.00    -0.045 A 
HETATM   21  C   UNK N   1      38.087  47.176  64.384  0.00  0.00     0.213 A 
HETATM   22  O   UNK N   1      39.075  47.729  63.581  0.00  0.00    -0.314 OA
HETATM   23  C   UNK N   1      38.601  47.951  62.345  0.00  0.00     0.283 A 
HETATM   24  O   UNK N   1      39.262  48.437  61.443  0.00  0.00    -0.260 OA
HETATM   25  C   UNK N   1      37.228  47.554  62.247  0.00  0.00     0.087 A 
ENDBRANCH   1  20
BRANCH   3  26
HETATM   26  O   UNK N   1      33.206  44.256  64.600  0.00  0.00    -0.389 OA
HETATM   27  H   UNK N   1      32.261  44.425  64.853  0.00  0.00     0.210 HD
ENDBRANCH   3  26
BRANCH   9  28
HETATM   28  O   UNK N   1      29.924  44.089  58.401  0.00  0.00    -0.396 OA
HETATM   29  H   UNK N   1      30.518  44.765  57.983  0.00  0.00     0.210 HD
ENDBRANCH   9  28
TORSDOF 3
ENDMDL
MODEL 3
REMARK VINA RESULT:      -5.9     15.703     19.245
REMARK  3 active torsions:
REMARK  status: ('A' for Active; 'I' for Inactive)
REMARK    1  A    between atoms: C_5  and  C_7 
REMARK    2  A    between atoms: C_9  and  O_10 
REMARK    3  A    between atoms: C_17  and  O_18 
ROOT
HETATM    1  C   UNK N   1      27.921  40.845  54.650  0.00  0.00     0.028 C 
HETATM    2  C   UNK N   1      28.160  41.741  55.902  0.00  0.00    -0.005 C 
HETATM    3  C   UNK N   1      28.545  40.701  57.044  0.00  0.00     0.070 C 
HETATM    4  C   UNK N   1      29.888  41.063  57.802  0.00  0.00     0.025 C 
HETATM    5  C   UNK N   1      29.925  42.570  58.193  0.00  0.00     0.001 C 
HETATM    6  C   UNK N   1      31.182  42.981  59.075  0.00  0.00    -0.036 C 
HETATM    7  C   UNK N   1      31.319  41.991  60.290  0.00  0.00    -0.004 C 
HETATM    8  C   UNK N   1      32.585  42.293  61.146  0.00  0.00     0.037 C 
HETATM    9  C   UNK N   1      33.894  42.314  60.326  0.00  0.00     0.118 C 
HETATM   10  C   UNK N   1      33.758  43.276  59.134  0.00  0.00     0.032 C 
HETATM   11  C   UNK N   1      32.529  42.941  58.263  0.00  0.00     0.012 C 
HETATM   12  C   UNK N   1      31.310  40.511  59.833  0.00  0.00     0.006 C 
HETATM   13  C   UNK N   1      30.034  40.190  59.075  0.00  0.00     0.008 C 
HETATM   14  C   UNK N   1      30.918  44.425  59.598  0.00  0.00     0.016 C 
HETATM   15  C   UNK N   1      29.719  43.494  56.945  0.00  0.00     0.007 C 
HETATM   16  C   UNK N   1      29.337  42.727  55.670  0.00  0.00     0.013 C 
HETATM   17  C   UNK N   1      28.690  39.344  56.282  0.00  0.00     0.040 C 
HETATM   18  C   UNK N   1      28.938  39.720  54.833  0.00  0.00     0.013 C 
HETATM   19  C   UNK N   1      26.888  42.569  56.221  0.00  0.00     0.019 C 
ENDROOT
BRANCH   1  20
HETATM   20  C   UNK N   1      27.950  41.525  53.293  0.00  0.00    -0.045 A 
HETATM   21  C   UNK N   1      29.219  41.932  52.563  0.00  0.00     0.213 A 
HETATM   22  O   UNK N   1      28.733  42.532  51.409  0.00  0.00    -0.314 OA
HETATM   23  C   UNK N   1      27.392  42.513  51.403  0.00  0.00     0.283 A 
HETATM   24  O   UNK N   1      26.711  42.981  50.506  0.00  0.00    -0.260 OA
HETATM   25  C   UNK N   1      26.886  41.886  52.588  0.00  0.00     0.087 A 
ENDBRANCH   1  20
BRANCH   3  26
HETATM   26  O   UNK N   1      27.481  40.620  57.975  0.00  0.00    -0.389 OA
HETATM   27  H   UNK N   1      26.665  40.293  57.516  0.00  0.00     0.210 HD
ENDBRANCH   3  26
BRANCH   9  28
HETATM   28  O   UNK N   1      34.221  41.024  59.884  0.00  0.00    -0.396 OA
HETATM   29  H   UNK N   1      33.744  40.880  59.026  0.00  0.00     0.210 HD
ENDBRANCH   9  28
TORSDOF 3
ENDMDL
MODEL 4
REMARK VINA RESULT:      -5.8     16.811     19.454
REMARK  3 active torsions:
REMARK  status: ('A' for Active; 'I' for Inactive)
REMARK    1  A    between atoms: C_5  and  C_7 
REMARK    2  A    between atoms: C_9  and  O_10 
REMARK    3  A    between atoms: C_17  and  O_18 
ROOT
HETATM    1  C   UNK N   1      32.212  43.818  60.204  0.00  0.00     0.028 C 
HETATM    2  C   UNK N   1      31.129  44.082  59.116  0.00  0.00    -0.005 C 
HETATM    3  C   UNK N   1      31.827  43.608  57.766  0.00  0.00     0.070 C 
HETATM    4  C   UNK N   1      30.950  42.590  56.925  0.00  0.00     0.025 C 
HETATM    5  C   UNK N   1      29.475  43.076  56.813  0.00  0.00     0.001 C 
HETATM    6  C   UNK N   1      28.565  42.174  55.872  0.00  0.00    -0.036 C 
HETATM    7  C   UNK N   1      29.286  41.961  54.489  0.00  0.00    -0.004 C 
HETATM    8  C   UNK N   1      28.479  41.015  53.552  0.00  0.00     0.037 C 
HETATM    9  C   UNK N   1      28.144  39.650  54.194  0.00  0.00     0.118 C 
HETATM   10  C   UNK N   1      27.446  39.858  55.548  0.00  0.00     0.032 C 
HETATM   11  C   UNK N   1      28.273  40.757  56.489  0.00  0.00     0.012 C 
HETATM   12  C   UNK N   1      30.736  41.447  54.668  0.00  0.00     0.006 C 
HETATM   13  C   UNK N   1      31.552  42.414  55.506  0.00  0.00     0.008 C 
HETATM   14  C   UNK N   1      27.229  42.947  55.656  0.00  0.00     0.016 C 
HETATM   15  C   UNK N   1      28.843  43.328  58.224  0.00  0.00     0.007 C 
HETATM   16  C   UNK N   1      29.855  43.233  59.375  0.00  0.00     0.013 C 
HETATM   17  C   UNK N   1      33.151  42.932  58.244  0.00  0.00     0.040 C 
HETATM   18  C   UNK N   1      32.911  42.558  59.695  0.00  0.00     0.013 C 
HETATM   19  C   UNK N   1      30.724  45.579  59.113  0.00  0.00     0.019 C 
ENDROOT
BRANCH   1  20
HETATM   20  C   UNK N   1      31.746  43.757  61.648  0.00  0.00    -0.045 A 
HETATM   21  C   UNK N   1      31.560  44.972  62.542  0.00  0.00     0.213 A 
HETATM   22  O   UNK N   1      31.165  44.410  63.749  0.00  0.00    -0.314 OA
HETATM   23  C   UNK N   1      31.109  43.073  63.644  0.00  0.00     0.283 A 
HETATM   24  O   UNK N   1      30.795  42.335  64.563  0.00  0.00    -0.260 OA
HETATM   25  C   UNK N   1      31.479  42.649  62.327  0.00  0.00     0.087 A 
ENDBRANCH   1  20
BRANCH   3  26
HETATM   26  O   UNK N   1      32.123  44.744  56.975  0.00  0.00    -0.389 OA
HETATM   27  H   UNK N   1      33.017  44.632  56.558  0.00  0.00     0.210 HD
ENDBRANCH   3  26
BRANCH   9  28
HETATM   28  O   UNK N   1      29.305  38.879  54.350  0.00  0.00    -0.396 OA
HETATM   29  H   UNK N   1      29.608  38.995  55.288  0.00  0.00     0.210 HD
ENDBRANCH   9  28
TORSDOF 3
ENDMDL
MODEL 5
REMARK VINA RESULT:      -5.6      2.169      7.873
REMARK  3 active torsions:
REMARK  status: ('A' for Active; 'I' for Inactive)
REMARK    1  A    between atoms: C_5  and  C_7 
REMARK    2  A    between atoms: C_9  and  O_10 
REMARK    3  A    between atoms: C_17  and  O_18 
ROOT
HETATM    1  C   UNK N   1      29.231  55.625  38.833  0.00  0.00     0.028 C 
HETATM    2  C   UNK N   1      29.178  55.273  40.349  0.00  0.00    -0.005 C 
HETATM    3  C   UNK N   1      29.538  53.722  40.388  0.00  0.00     0.070 C 
HETATM    4  C   UNK N   1      30.706  53.371  41.400  0.00  0.00     0.025 C 
HETATM    5  C   UNK N   1      30.490  54.071  42.775  0.00  0.00     0.001 C 
HETATM    6  C   UNK N   1      31.551  53.660  43.885  0.00  0.00    -0.036 C 
HETATM    7  C   UNK N   1      31.652  52.092  43.963  0.00  0.00    -0.004 C 
HETATM    8  C   UNK N   1      32.738  51.629  44.978  0.00  0.00     0.037 C 
HETATM    9  C   UNK N   1      34.132  52.239  44.711  0.00  0.00     0.118 C 
HETATM   10  C   UNK N   1      34.033  53.772  44.628  0.00  0.00     0.032 C 
HETATM   11  C   UNK N   1      32.989  54.224  43.586  0.00  0.00     0.012 C 
HETATM   12  C   UNK N   1      31.900  51.460  42.571  0.00  0.00     0.006 C 
HETATM   13  C   UNK N   1      30.792  51.836  41.603  0.00  0.00     0.008 C 
HETATM   14  C   UNK N   1      31.029  54.223  45.241  0.00  0.00     0.016 C 
HETATM   15  C   UNK N   1      30.335  55.621  42.613  0.00  0.00     0.007 C 
HETATM   16  C   UNK N   1      30.235  56.079  41.151  0.00  0.00     0.013 C 
HETATM   17  C   UNK N   1      29.964  53.398  38.920  0.00  0.00     0.040 C 
HETATM   18  C   UNK N   1      30.354  54.731  38.310  0.00  0.00     0.013 C 
HETATM   19  C   UNK N   1      27.775  55.597  40.927  0.00  0.00     0.019 C 
ENDROOT
BRANCH   1  20
HETATM   20  C   UNK N   1      29.354  57.094  38.465  0.00  0.00    -0.045 A 
HETATM   21  C   UNK N   1      29.585  58.214  39.467  0.00  0.00     0.213 A 
HETATM   22  O   UNK N   1      29.589  59.348  38.666  0.00  0.00    -0.314 OA
HETATM   23  C   UNK N   1      29.395  59.013  37.381  0.00  0.00     0.283 A 
HETATM   24  O   UNK N   1      29.349  59.822  36.470  0.00  0.00    -0.260 OA
HETATM   25  C   UNK N   1      29.240  57.595  37.243  0.00  0.00     0.087 A 
ENDBRANCH   1  20
BRANCH   3  26
HETATM   26  O   UNK N   1      28.378  52.985  40.729  0.00  0.00    -0.389 OA
HETATM   27  H   UNK N   1      27.662  53.610  41.013  0.00  0.00     0.210 HD
ENDBRANCH   3  26
BRANCH   9  28
HETATM   28  O   UNK N   1      34.684  51.715  43.533  0.00  0.00    -0.396 OA
HETATM   29  H   UNK N   1      34.224  50.854  43.354  0.00  0.00     0.210 HD
ENDBRANCH   9  28
TORSDOF 3
ENDMDL
MODEL 6
REMARK VINA RESULT:      -5.4     18.979     21.313
REMARK  3 active torsions:
REMARK  status: ('A' for Active; 'I' for Inactive)
REMARK    1  A    between atoms: C_5  and  C_7 
REMARK    2  A    between atoms: C_9  and  O_10 
REMARK    3  A    between atoms: C_17  and  O_18 
ROOT
HETATM    1  C   UNK N   1      34.765  45.656  64.029  0.00  0.00     0.028 C 
HETATM    2  C   UNK N   1      33.615  44.692  63.611  0.00  0.00    -0.005 C 
HETATM    3  C   UNK N   1      32.378  45.664  63.369  0.00  0.00     0.070 C 
HETATM    4  C   UNK N   1      31.676  45.454  61.963  0.00  0.00     0.025 C 
HETATM    5  C   UNK N   1      31.442  43.943  61.670  0.00  0.00     0.001 C 
HETATM    6  C   UNK N   1      30.623  43.660  60.337  0.00  0.00    -0.036 C 
HETATM    7  C   UNK N   1      29.314  44.534  60.329  0.00  0.00    -0.004 C 
HETATM    8  C   UNK N   1      28.509  44.361  59.007  0.00  0.00     0.037 C 
HETATM    9  C   UNK N   1      29.343  44.639  57.736  0.00  0.00     0.118 C 
HETATM   10  C   UNK N   1      30.625  43.790  57.747  0.00  0.00     0.032 C 
HETATM   11  C   UNK N   1      31.442  44.002  59.039  0.00  0.00     0.012 C 
HETATM   12  C   UNK N   1      29.618  46.030  60.593  0.00  0.00     0.006 C 
HETATM   13  C   UNK N   1      30.322  46.209  61.925  0.00  0.00     0.008 C 
HETATM   14  C   UNK N   1      30.247  42.148  60.348  0.00  0.00     0.016 C 
HETATM   15  C   UNK N   1      32.776  43.126  61.758  0.00  0.00     0.007 C 
HETATM   16  C   UNK N   1      33.961  43.942  62.296  0.00  0.00     0.013 C 
HETATM   17  C   UNK N   1      32.998  47.094  63.468  0.00  0.00     0.040 C 
HETATM   18  C   UNK N   1      34.481  46.909  63.204  0.00  0.00     0.013 C 
HETATM   19  C   UNK N   1      33.367  43.638  64.722  0.00  0.00     0.019 C 
ENDROOT
BRANCH   1  20
HETATM   20  C   UNK N   1      36.185  45.127  63.928  0.00  0.00    -0.045 A 
HETATM   21  C   UNK N   1      37.126  45.407  62.768  0.00  0.00     0.213 A 
HETATM   22  O   UNK N   1      38.266  44.694  63.116  0.00  0.00    -0.314 OA
HETATM   23  C   UNK N   1      38.086  44.070  64.289  0.00  0.00     0.283 A 
HETATM   24  O   UNK N   1      38.931  43.370  64.821  0.00  0.00    -0.260 OA
HETATM   25  C   UNK N   1      36.776  44.330  64.809  0.00  0.00     0.087 A 
ENDBRANCH   1  20
BRANCH   3  26
HETATM   26  O   UNK N   1      31.430  45.475  64.404  0.00  0.00    -0.389 OA
HETATM   27  H   UNK N   1      30.636  45.002  64.042  0.00  0.00     0.210 HD
ENDBRANCH   3  26
BRANCH   9  28
HETATM   28  O   UNK N   1      29.654  46.002  57.636  0.00  0.00    -0.396 OA
HETATM   29  H   UNK N   1      28.826  46.470  57.350  0.00  0.00     0.210 HD
ENDBRANCH   9  28
TORSDOF 3
ENDMDL
MODEL 7
REMARK VINA RESULT:      -5.3     16.371     20.026
REMARK  3 active torsions:
REMARK  status: ('A' for Active; 'I' for Inactive)
REMARK    1  A    between atoms: C_5  and  C_7 
REMARK    2  A    between atoms: C_9  and  O_10 
REMARK    3  A    between atoms: C_17  and  O_18 
ROOT
HETATM    1  C   UNK N   1      28.270  42.655  54.556  0.00  0.00     0.028 C 
HETATM    2  C   UNK N   1      29.134  41.403  54.894  0.00  0.00    -0.005 C 
HETATM    3  C   UNK N   1      29.097  41.337  56.484  0.00  0.00     0.070 C 
HETATM    4  C   UNK N   1      28.668  39.920  57.048  0.00  0.00     0.025 C 
HETATM    5  C   UNK N   1      29.428  38.771  56.321  0.00  0.00     0.001 C 
HETATM    6  C   UNK N   1      29.150  37.326  56.923  0.00  0.00    -0.036 C 
HETATM    7  C   UNK N   1      29.356  37.357  58.483  0.00  0.00    -0.004 C 
HETATM    8  C   UNK N   1      29.016  35.987  59.141  0.00  0.00     0.037 C 
HETATM    9  C   UNK N   1      27.599  35.474  58.802  0.00  0.00     0.118 C 
HETATM   10  C   UNK N   1      27.394  35.451  57.278  0.00  0.00     0.032 C 
HETATM   11  C   UNK N   1      27.687  36.824  56.638  0.00  0.00     0.012 C 
HETATM   12  C   UNK N   1      28.548  38.499  59.150  0.00  0.00     0.006 C 
HETATM   13  C   UNK N   1      28.944  39.846  58.572  0.00  0.00     0.008 C 
HETATM   14  C   UNK N   1      30.182  36.357  56.274  0.00  0.00     0.016 C 
HETATM   15  C   UNK N   1      29.229  38.841  54.769  0.00  0.00     0.007 C 
HETATM   16  C   UNK N   1      28.507  40.113  54.300  0.00  0.00     0.013 C 
HETATM   17  C   UNK N   1      28.051  42.428  56.882  0.00  0.00     0.040 C 
HETATM   18  C   UNK N   1      27.198  42.638  55.645  0.00  0.00     0.013 C 
HETATM   19  C   UNK N   1      30.563  41.563  54.314  0.00  0.00     0.019 C 
ENDROOT
BRANCH   1  20
HETATM   20  C   UNK N   1      27.746  42.774  53.137  0.00  0.00    -0.045 A 
HETATM   21  C   UNK N   1      28.614  43.049  51.920  0.00  0.00     0.213 A 
HETATM   22  O   UNK N   1      27.689  43.100  50.885  0.00  0.00    -0.314 OA
HETATM   23  C   UNK N   1      26.450  42.894  51.357  0.00  0.00     0.283 A 
HETATM   24  O   UNK N   1      25.451  42.894  50.658  0.00  0.00    -0.260 OA
HETATM   25  C   UNK N   1      26.472  42.694  52.775  0.00  0.00     0.087 A 
ENDBRANCH   1  20
BRANCH   3  26
HETATM   26  O   UNK N   1      30.372  41.683  56.992  0.00  0.00    -0.389 OA
HETATM   27  H   UNK N   1      30.437  42.670  57.077  0.00  0.00     0.210 HD
ENDBRANCH   3  26
BRANCH   9  28
HETATM   28  O   UNK N   1      26.624  36.271  59.419  0.00  0.00    -0.396 OA
HETATM   29  H   UNK N   1      26.603  36.016  60.378  0.00  0.00     0.210 HD
ENDBRANCH   9  28
TORSDOF 3
ENDMDL
MODEL 8
REMARK VINA RESULT:      -5.2     16.970     20.454
REMARK  3 active torsions:
REMARK  status: ('A' for Active; 'I' for Inactive)
REMARK    1  A    between atoms: C_5  and  C_7 
REMARK    2  A    between atoms: C_9  and  O_10 
REMARK    3  A    between atoms: C_17  and  O_18 
ROOT
HETATM    1  C   UNK N   1      30.724  45.949  59.312  0.00  0.00     0.028 C 
HETATM    2  C   UNK N   1      30.867  44.587  58.569  0.00  0.00    -0.005 C 
HETATM    3  C   UNK N   1      31.426  43.604  59.689  0.00  0.00     0.070 C 
HETATM    4  C   UNK N   1      30.588  42.267  59.831  0.00  0.00     0.025 C 
HETATM    5  C   UNK N   1      30.290  41.638  58.438  0.00  0.00     0.001 C 
HETATM    6  C   UNK N   1      29.567  40.224  58.506  0.00  0.00    -0.036 C 
HETATM    7  C   UNK N   1      30.349  39.279  59.491  0.00  0.00    -0.004 C 
HETATM    8  C   UNK N   1      29.640  37.903  59.663  0.00  0.00     0.037 C 
HETATM    9  C   UNK N   1      28.163  38.021  60.099  0.00  0.00     0.118 C 
HETATM   10  C   UNK N   1      27.399  38.950  59.141  0.00  0.00     0.032 C 
HETATM   11  C   UNK N   1      28.081  40.327  59.012  0.00  0.00     0.012 C 
HETATM   12  C   UNK N   1      30.584  39.949  60.868  0.00  0.00     0.006 C 
HETATM   13  C   UNK N   1      31.356  41.246  60.711  0.00  0.00     0.008 C 
HETATM   14  C   UNK N   1      29.599  39.627  57.066  0.00  0.00     0.016 C 
HETATM   15  C   UNK N   1      29.568  42.655  57.490  0.00  0.00     0.007 C 
HETATM   16  C   UNK N   1      29.491  44.078  58.061  0.00  0.00     0.013 C 
HETATM   17  C   UNK N   1      31.349  44.446  61.003  0.00  0.00     0.040 C 
HETATM   18  C   UNK N   1      30.324  45.530  60.726  0.00  0.00     0.013 C 
HETATM   19  C   UNK N   1      31.812  44.738  57.348  0.00  0.00     0.019 C 
ENDROOT
BRANCH   1  20
HETATM   20  C   UNK N   1      29.831  46.998  58.674  0.00  0.00    -0.045 A 
HETATM   21  C   UNK N   1      28.429  47.339  59.152  0.00  0.00     0.213 A 
HETATM   22  O   UNK N   1      28.021  48.310  58.247  0.00  0.00    -0.314 OA
HETATM   23  C   UNK N   1      28.990  48.547  57.350  0.00  0.00     0.283 A 
HETATM   24  O   UNK N   1      28.888  49.352  56.440  0.00  0.00    -0.260 OA
HETATM   25  C   UNK N   1      30.134  47.723  57.605  0.00  0.00     0.087 A 
ENDBRANCH   1  20
BRANCH   3  26
HETATM   26  O   UNK N   1      32.775  43.288  59.397  0.00  0.00    -0.389 OA
HETATM   27  H   UNK N   1      33.371  43.948  59.838  0.00  0.00     0.210 HD
ENDBRANCH   3  26
BRANCH   9  28
HETATM   28  O   UNK N   1      28.072  38.490  61.418  0.00  0.00    -0.396 OA
HETATM   29  H   UNK N   1      28.545  37.834  61.993  0.00  0.00     0.210 HD
ENDBRANCH   9  28
TORSDOF 3
ENDMDL
MODEL 9
REMARK VINA RESULT:      -5.2     17.578     20.265
REMARK  3 active torsions:
REMARK  status: ('A' for Active; 'I' for Inactive)
REMARK    1  A    between atoms: C_5  and  C_7 
REMARK    2  A    between atoms: C_9  and  O_10 
REMARK    3  A    between atoms: C_17  and  O_18 
ROOT
HETATM    1  C   UNK N   1      31.276  43.920  59.273  0.00  0.00     0.028 C 
HETATM    2  C   UNK N   1      30.022  43.085  58.877  0.00  0.00    -0.005 C 
HETATM    3  C   UNK N   1      30.146  42.944  57.296  0.00  0.00     0.070 C 
HETATM    4  C   UNK N   1      30.033  41.449  56.784  0.00  0.00     0.025 C 
HETATM    5  C   UNK N   1      28.836  40.713  57.456  0.00  0.00     0.001 C 
HETATM    6  C   UNK N   1      28.576  39.249  56.894  0.00  0.00    -0.036 C 
HETATM    7  C   UNK N   1      28.512  39.292  55.322  0.00  0.00    -0.004 C 
HETATM    8  C   UNK N   1      28.342  37.871  54.708  0.00  0.00     0.037 C 
HETATM    9  C   UNK N   1      29.421  36.867  55.169  0.00  0.00     0.118 C 
HETATM   10  C   UNK N   1      29.490  36.829  56.704  0.00  0.00     0.032 C 
HETATM   11  C   UNK N   1      29.706  38.234  57.304  0.00  0.00     0.012 C 
HETATM   12  C   UNK N   1      29.745  40.007  54.714  0.00  0.00     0.006 C 
HETATM   13  C   UNK N   1      29.861  41.425  55.243  0.00  0.00     0.008 C 
HETATM   14  C   UNK N   1      27.205  38.779  57.465  0.00  0.00     0.016 C 
HETATM   15  C   UNK N   1      28.933  40.764  59.019  0.00  0.00     0.007 C 
HETATM   16  C   UNK N   1      30.055  41.678  59.534  0.00  0.00     0.013 C 
HETATM   17  C   UNK N   1      31.558  43.531  56.976  0.00  0.00     0.040 C 
HETATM   18  C   UNK N   1      32.334  43.447  58.277  0.00  0.00     0.013 C 
HETATM   19  C   UNK N   1      28.728  43.806  59.335  0.00  0.00     0.019 C 
ENDROOT
BRANCH   1  20
HETATM   20  C   UNK N   1      31.702  43.887  60.730  0.00  0.00    -0.045 A 
HETATM   21  C   UNK N   1      32.814  43.009  61.280  0.00  0.00     0.213 A 
HETATM   22  O   UNK N   1      32.799  43.305  62.637  0.00  0.00    -0.314 OA
HETATM   23  C   UNK N   1      31.845  44.209  62.906  0.00  0.00     0.283 A 
HETATM   24  O   UNK N   1      31.615  44.638  64.024  0.00  0.00    -0.260 OA
HETATM   25  C   UNK N   1      31.143  44.580  61.713  0.00  0.00     0.087 A 
ENDBRANCH   1  20
BRANCH   3  26
HETATM   26  O   UNK N   1      29.145  43.733  56.681  0.00  0.00    -0.389 OA
HETATM   27  H   UNK N   1      29.073  43.487  55.722  0.00  0.00     0.210 HD
ENDBRANCH   3  26
BRANCH   9  28
HETATM   28  O   UNK N   1      30.671  37.200  54.627  0.00  0.00    -0.396 OA
HETATM   29  H   UNK N   1      30.664  38.179  54.460  0.00  0.00     0.210 HD
ENDBRANCH   9  28
TORSDOF 3
ENDMDL
