MODEL 1
REMARK VINA RESULT:      -8.4      0.000      0.000
REMARK  9 active torsions:
REMARK  status: ('A' for Active; 'I' for Inactive)
REMARK    1  A    between atoms: C_5  and  C_20 
REMARK    2  A    between atoms: C_6  and  O_7 
REMARK    3  A    between atoms: C_6  and  C_9 
REMARK    4  A    between atoms: C_9  and  C_10 
REMARK    5  A    between atoms: C_12  and  O_13 
REMARK    6  A    between atoms: C_15  and  O_16 
REMARK    7  A    between atoms: C_20  and  C_21 
REMARK    8  A    between atoms: C_23  and  O_24 
REMARK    9  A    between atoms: C_26  and  O_27 
ROOT
HETATM    1  O   UNK N   1      42.767  49.134  45.227  0.00  0.00    -0.262 OA
HETATM    2  C   UNK N   1      42.368  48.419  46.132  0.00  0.00     0.294 C 
HETATM    3  O   UNK N   1      43.206  47.854  47.018  0.00  0.00    -0.319 OA
HETATM    4  C   UNK N   1      42.582  46.863  47.742  0.00  0.00     0.187 C 
HETATM    5  C   UNK N   1      41.096  47.227  47.626  0.00  0.00     0.059 C 
HETATM    6  C   UNK N   1      40.970  47.910  46.236  0.00  0.00     0.155 C 
ENDROOT
BRANCH   6   7
HETATM    7  O   UNK N   1      40.755  46.943  45.236  0.00  0.00    -0.379 OA
HETATM    8  H   UNK N   1      41.450  47.071  44.538  0.00  0.00     0.211 HD
ENDBRANCH   6   7
BRANCH   6   9
HETATM    9  C   UNK N   1      39.840  48.991  46.206  0.00  0.00     0.087 C 
BRANCH   9  10
HETATM   10  C   UNK N   1      39.387  49.374  44.810  0.00  0.00    -0.052 A 
HETATM   11  C   UNK N   1      38.295  48.724  44.212  0.00  0.00     0.047 A 
HETATM   12  C   UNK N   1      37.883  49.066  42.906  0.00  0.00     0.101 A 
HETATM   13  C   UNK N   1      38.590  50.060  42.199  0.00  0.00     0.099 A 
HETATM   14  C   UNK N   1      39.673  50.708  42.803  0.00  0.00     0.040 A 
HETATM   15  C   UNK N   1      40.062  50.379  44.101  0.00  0.00     0.010 A 
BRANCH  12  16
HETATM   16  O   UNK N   1      36.819  48.463  42.306  0.00  0.00    -0.353 OA
HETATM   17  C   UNK N   1      36.034  47.481  42.876  0.00  0.00     0.210 C 
ENDBRANCH  12  16
BRANCH  13  18
HETATM   18  O   UNK N   1      38.241  50.405  40.943  0.00  0.00    -0.358 OA
HETATM   19  H   UNK N   1      37.359  50.233  40.583  0.00  0.00     0.218 HD
ENDBRANCH  13  18
ENDBRANCH   9  10
ENDBRANCH   6   9
BRANCH   5  20
HETATM   20  C   UNK N   1      40.081  46.104  47.905  0.00  0.00     0.049 C 
BRANCH  20  21
HETATM   21  C   UNK N   1      40.535  45.178  49.007  0.00  0.00    -0.055 A 
HETATM   22  C   UNK N   1      41.180  45.724  50.126  0.00  0.00     0.046 A 
HETATM   23  C   UNK N   1      41.622  44.902  51.177  0.00  0.00     0.101 A 
HETATM   24  C   UNK N   1      41.393  43.513  51.106  0.00  0.00     0.099 A 
HETATM   25  C   UNK N   1      40.744  42.970  49.988  0.00  0.00     0.040 A 
HETATM   26  C   UNK N   1      40.323  43.795  48.939  0.00  0.00     0.010 A 
BRANCH  23  27
HETATM   27  O   UNK N   1      42.268  45.417  52.261  0.00  0.00    -0.353 OA
HETATM   28  C   UNK N   1      41.690  45.640  53.496  0.00  0.00     0.210 C 
ENDBRANCH  23  27
BRANCH  24  29
HETATM   29  O   UNK N   1      41.790  42.692  52.100  0.00  0.00    -0.358 OA
HETATM   30  H   UNK N   1      41.815  41.729  51.997  0.00  0.00     0.218 HD
ENDBRANCH  24  29
ENDBRANCH  20  21
ENDBRANCH   5  20
TORSDOF 9
ENDMDL
MODEL 2
REMARK VINA RESULT:      -8.0      1.565      8.755
REMARK  9 active torsions:
REMARK  status: ('A' for Active; 'I' for Inactive)
REMARK    1  A    between atoms: C_5  and  C_20 
REMARK    2  A    between atoms: C_6  and  O_7 
REMARK    3  A    between atoms: C_6  and  C_9 
REMARK    4  A    between atoms: C_9  and  C_10 
REMARK    5  A    between atoms: C_12  and  O_13 
REMARK    6  A    between atoms: C_15  and  O_16 
REMARK    7  A    between atoms: C_20  and  C_21 
REMARK    8  A    between atoms: C_23  and  O_24 
REMARK    9  A    between atoms: C_26  and  O_27 
ROOT
HETATM    1  O   UNK N   1      42.235  43.903  47.184  0.00  0.00    -0.262 OA
HETATM    2  C   UNK N   1      41.673  44.859  46.674  0.00  0.00     0.294 C 
HETATM    3  O   UNK N   1      41.734  45.102  45.353  0.00  0.00    -0.319 OA
HETATM    4  C   UNK N   1      41.299  46.374  45.053  0.00  0.00     0.187 C 
HETATM    5  C   UNK N   1      40.416  46.734  46.255  0.00  0.00     0.059 C 
HETATM    6  C   UNK N   1      41.054  45.973  47.449  0.00  0.00     0.155 C 
ENDROOT
BRANCH   6   7
HETATM    7  O   UNK N   1      42.072  46.749  48.034  0.00  0.00    -0.379 OA
HETATM    8  H   UNK N   1      41.773  47.697  48.024  0.00  0.00     0.211 HD
ENDBRANCH   6   7
BRANCH   6   9
HETATM    9  C   UNK N   1      39.995  45.559  48.523  0.00  0.00     0.087 C 
BRANCH   9  10
HETATM   10  C   UNK N   1      40.591  45.174  49.864  0.00  0.00    -0.052 A 
HETATM   11  C   UNK N   1      40.087  44.074  50.578  0.00  0.00     0.047 A 
HETATM   12  C   UNK N   1      40.628  43.726  51.834  0.00  0.00     0.101 A 
HETATM   13  C   UNK N   1      41.671  44.504  52.375  0.00  0.00     0.099 A 
HETATM   14  C   UNK N   1      42.172  45.594  51.656  0.00  0.00     0.040 A 
HETATM   15  C   UNK N   1      41.648  45.921  50.406  0.00  0.00     0.010 A 
BRANCH  12  16
HETATM   16  O   UNK N   1      40.169  42.656  52.542  0.00  0.00    -0.353 OA
HETATM   17  C   UNK N   1      39.278  42.719  53.595  0.00  0.00     0.210 C 
ENDBRANCH  12  16
BRANCH  13  18
HETATM   18  O   UNK N   1      42.204  44.216  53.581  0.00  0.00    -0.358 OA
HETATM   19  H   UNK N   1      42.255  43.312  53.924  0.00  0.00     0.218 HD
ENDBRANCH  13  18
ENDBRANCH   9  10
ENDBRANCH   6   9
BRANCH   5  20
HETATM   20  C   UNK N   1      40.145  48.231  46.493  0.00  0.00     0.049 C 
BRANCH  20  21
HETATM   21  C   UNK N   1      39.842  48.972  45.215  0.00  0.00    -0.055 A 
HETATM   22  C   UNK N   1      38.737  48.575  44.448  0.00  0.00     0.046 A 
HETATM   23  C   UNK N   1      38.416  49.236  43.249  0.00  0.00     0.101 A 
HETATM   24  C   UNK N   1      39.209  50.321  42.828  0.00  0.00     0.099 A 
HETATM   25  C   UNK N   1      40.312  50.718  43.599  0.00  0.00     0.040 A 
HETATM   26  C   UNK N   1      40.633  50.045  44.782  0.00  0.00     0.010 A 
BRANCH  23  27
HETATM   27  O   UNK N   1      37.357  48.847  42.484  0.00  0.00    -0.353 OA
HETATM   28  C   UNK N   1      36.436  47.881  42.839  0.00  0.00     0.210 C 
ENDBRANCH  23  27
BRANCH  24  29
HETATM   29  O   UNK N   1      38.927  50.989  41.690  0.00  0.00    -0.358 OA
HETATM   30  H   UNK N   1      39.618  51.290  41.082  0.00  0.00     0.218 HD
ENDBRANCH  24  29
ENDBRANCH  20  21
ENDBRANCH   5  20
TORSDOF 9
ENDMDL
MODEL 3
REMARK VINA RESULT:      -7.2     10.621     14.073
REMARK  9 active torsions:
REMARK  status: ('A' for Active; 'I' for Inactive)
REMARK    1  A    between atoms: C_5  and  C_20 
REMARK    2  A    between atoms: C_6  and  O_7 
REMARK    3  A    between atoms: C_6  and  C_9 
REMARK    4  A    between atoms: C_9  and  C_10 
REMARK    5  A    between atoms: C_12  and  O_13 
REMARK    6  A    between atoms: C_15  and  O_16 
REMARK    7  A    between atoms: C_20  and  C_21 
REMARK    8  A    between atoms: C_23  and  O_24 
REMARK    9  A    between atoms: C_26  and  O_27 
ROOT
HETATM    1  O   UNK N   1      25.983  55.067  40.226  0.00  0.00    -0.262 OA
HETATM    2  C   UNK N   1      26.868  55.082  41.066  0.00  0.00     0.294 C 
HETATM    3  O   UNK N   1      26.614  54.914  42.375  0.00  0.00    -0.319 OA
HETATM    4  C   UNK N   1      27.695  55.271  43.149  0.00  0.00     0.187 C 
HETATM    5  C   UNK N   1      28.876  55.154  42.177  0.00  0.00     0.059 C 
HETATM    6  C   UNK N   1      28.272  55.500  40.788  0.00  0.00     0.155 C 
ENDROOT
BRANCH   6   7
HETATM    7  O   UNK N   1      28.306  56.891  40.576  0.00  0.00    -0.379 OA
HETATM    8  H   UNK N   1      27.640  57.306  41.185  0.00  0.00     0.211 HD
ENDBRANCH   6   7
BRANCH   6   9
HETATM    9  C   UNK N   1      28.997  54.751  39.622  0.00  0.00     0.087 C 
BRANCH   9  10
HETATM   10  C   UNK N   1      29.295  53.293  39.914  0.00  0.00    -0.052 A 
HETATM   11  C   UNK N   1      28.250  52.359  40.022  0.00  0.00     0.047 A 
HETATM   12  C   UNK N   1      28.525  51.005  40.311  0.00  0.00     0.101 A 
HETATM   13  C   UNK N   1      29.860  50.600  40.509  0.00  0.00     0.099 A 
HETATM   14  C   UNK N   1      30.896  51.533  40.395  0.00  0.00     0.040 A 
HETATM   15  C   UNK N   1      30.620  52.865  40.088  0.00  0.00     0.010 A 
BRANCH  12  16
HETATM   16  O   UNK N   1      27.533  50.076  40.407  0.00  0.00    -0.353 OA
HETATM   17  C   UNK N   1      26.295  50.286  40.980  0.00  0.00     0.210 C 
ENDBRANCH  12  16
BRANCH  13  18
HETATM   18  O   UNK N   1      30.164  49.319  40.805  0.00  0.00    -0.358 OA
HETATM   19  H   UNK N   1      29.593  48.763  41.354  0.00  0.00     0.218 HD
ENDBRANCH  13  18
ENDBRANCH   9  10
ENDBRANCH   6   9
BRANCH   5  20
HETATM   20  C   UNK N   1      30.160  55.917  42.549  0.00  0.00     0.049 C 
BRANCH  20  21
HETATM   21  C   UNK N   1      31.148  55.054  43.293  0.00  0.00    -0.055 A 
HETATM   22  C   UNK N   1      32.265  55.660  43.886  0.00  0.00     0.046 A 
HETATM   23  C   UNK N   1      33.213  54.896  44.589  0.00  0.00     0.101 A 
HETATM   24  C   UNK N   1      33.022  53.506  44.711  0.00  0.00     0.099 A 
HETATM   25  C   UNK N   1      31.902  52.902  44.120  0.00  0.00     0.040 A 
HETATM   26  C   UNK N   1      30.973  53.668  43.409  0.00  0.00     0.010 A 
BRANCH  23  27
HETATM   27  O   UNK N   1      34.313  55.471  45.152  0.00  0.00    -0.353 OA
HETATM   28  C   UNK N   1      34.294  56.576  45.980  0.00  0.00     0.210 C 
ENDBRANCH  23  27
BRANCH  24  29
HETATM   29  O   UNK N   1      33.902  52.740  45.388  0.00  0.00    -0.358 OA
HETATM   30  H   UNK N   1      34.248  52.992  46.256  0.00  0.00     0.218 HD
ENDBRANCH  24  29
ENDBRANCH  20  21
ENDBRANCH   5  20
TORSDOF 9
ENDMDL
MODEL 4
REMARK VINA RESULT:      -7.0      1.894      8.532
REMARK  9 active torsions:
REMARK  status: ('A' for Active; 'I' for Inactive)
REMARK    1  A    between atoms: C_5  and  C_20 
REMARK    2  A    between atoms: C_6  and  O_7 
REMARK    3  A    between atoms: C_6  and  C_9 
REMARK    4  A    between atoms: C_9  and  C_10 
REMARK    5  A    between atoms: C_12  and  O_13 
REMARK    6  A    between atoms: C_15  and  O_16 
REMARK    7  A    between atoms: C_20  and  C_21 
REMARK    8  A    between atoms: C_23  and  O_24 
REMARK    9  A    between atoms: C_26  and  O_27 
ROOT
HETATM    1  O   UNK N   1      38.111  44.093  48.334  0.00  0.00    -0.262 OA
HETATM    2  C   UNK N   1      38.779  45.046  47.964  0.00  0.00     0.294 C 
HETATM    3  O   UNK N   1      38.316  46.306  48.015  0.00  0.00    -0.319 OA
HETATM    4  C   UNK N   1      39.100  47.162  47.274  0.00  0.00     0.187 C 
HETATM    5  C   UNK N   1      40.444  46.428  47.198  0.00  0.00     0.059 C 
HETATM    6  C   UNK N   1      40.067  44.921  47.221  0.00  0.00     0.155 C 
ENDROOT
BRANCH   6   7
HETATM    7  O   UNK N   1      39.804  44.464  45.916  0.00  0.00    -0.379 OA
HETATM    8  H   UNK N   1      40.479  43.769  45.698  0.00  0.00     0.211 HD
ENDBRANCH   6   7
BRANCH   6   9
HETATM    9  C   UNK N   1      41.170  44.043  47.898  0.00  0.00     0.087 C 
BRANCH   9  10
HETATM   10  C   UNK N   1      41.433  44.389  49.351  0.00  0.00    -0.052 A 
HETATM   11  C   UNK N   1      41.005  43.530  50.377  0.00  0.00     0.047 A 
HETATM   12  C   UNK N   1      41.232  43.860  51.730  0.00  0.00     0.101 A 
HETATM   13  C   UNK N   1      41.882  45.071  52.045  0.00  0.00     0.099 A 
HETATM   14  C   UNK N   1      42.311  45.919  51.018  0.00  0.00     0.040 A 
HETATM   15  C   UNK N   1      42.101  45.578  49.682  0.00  0.00     0.010 A 
BRANCH  12  16
HETATM   16  O   UNK N   1      40.841  43.039  52.745  0.00  0.00    -0.353 OA
HETATM   17  C   UNK N   1      39.565  42.967  53.265  0.00  0.00     0.210 C 
ENDBRANCH  12  16
BRANCH  13  18
HETATM   18  O   UNK N   1      42.103  45.432  53.325  0.00  0.00    -0.358 OA
HETATM   19  H   UNK N   1      42.908  45.893  53.604  0.00  0.00     0.218 HD
ENDBRANCH  13  18
ENDBRANCH   9  10
ENDBRANCH   6   9
BRANCH   5  20
HETATM   20  C   UNK N   1      41.404  46.852  46.070  0.00  0.00     0.049 C 
BRANCH  20  21
HETATM   21  C   UNK N   1      40.972  48.131  45.398  0.00  0.00    -0.055 A 
HETATM   22  C   UNK N   1      39.662  48.229  44.908  0.00  0.00     0.046 A 
HETATM   23  C   UNK N   1      39.214  49.402  44.273  0.00  0.00     0.101 A 
HETATM   24  C   UNK N   1      40.095  50.494  44.147  0.00  0.00     0.099 A 
HETATM   25  C   UNK N   1      41.405  50.394  44.641  0.00  0.00     0.040 A 
HETATM   26  C   UNK N   1      41.846  49.218  45.256  0.00  0.00     0.010 A 
BRANCH  23  27
HETATM   27  O   UNK N   1      37.950  49.503  43.776  0.00  0.00    -0.353 OA
HETATM   28  C   UNK N   1      37.530  48.981  42.568  0.00  0.00     0.210 C 
ENDBRANCH  23  27
BRANCH  24  29
HETATM   29  O   UNK N   1      39.701  51.640  43.556  0.00  0.00    -0.358 OA
HETATM   30  H   UNK N   1      39.016  52.210  43.935  0.00  0.00     0.218 HD
ENDBRANCH  24  29
ENDBRANCH  20  21
ENDBRANCH   5  20
TORSDOF 9
ENDMDL
MODEL 5
REMARK VINA RESULT:      -6.6      3.223      7.128
REMARK  9 active torsions:
REMARK  status: ('A' for Active; 'I' for Inactive)
REMARK    1  A    between atoms: C_5  and  C_20 
REMARK    2  A    between atoms: C_6  and  O_7 
REMARK    3  A    between atoms: C_6  and  C_9 
REMARK    4  A    between atoms: C_9  and  C_10 
REMARK    5  A    between atoms: C_12  and  O_13 
REMARK    6  A    between atoms: C_15  and  O_16 
REMARK    7  A    between atoms: C_20  and  C_21 
REMARK    8  A    between atoms: C_23  and  O_24 
REMARK    9  A    between atoms: C_26  and  O_27 
ROOT
HETATM    1  O   UNK N   1      39.439  48.955  47.208  0.00  0.00    -0.262 OA
HETATM    2  C   UNK N   1      39.988  47.928  46.841  0.00  0.00     0.294 C 
HETATM    3  O   UNK N   1      41.210  47.932  46.284  0.00  0.00    -0.319 OA
HETATM    4  C   UNK N   1      41.493  46.729  45.677  0.00  0.00     0.187 C 
HETATM    5  C   UNK N   1      40.549  45.749  46.387  0.00  0.00     0.059 C 
HETATM    6  C   UNK N   1      39.306  46.604  46.757  0.00  0.00     0.155 C 
ENDROOT
BRANCH   6   7
HETATM    7  O   UNK N   1      38.393  46.623  45.687  0.00  0.00    -0.379 OA
HETATM    8  H   UNK N   1      38.882  46.349  44.867  0.00  0.00     0.211 HD
ENDBRANCH   6   7
BRANCH   6   9
HETATM    9  C   UNK N   1      38.609  46.103  48.064  0.00  0.00     0.087 C 
BRANCH   9  10
HETATM   10  C   UNK N   1      39.492  45.242  48.946  0.00  0.00    -0.052 A 
HETATM   11  C   UNK N   1      40.494  45.826  49.739  0.00  0.00     0.047 A 
HETATM   12  C   UNK N   1      41.328  45.024  50.547  0.00  0.00     0.101 A 
HETATM   13  C   UNK N   1      41.157  43.625  50.538  0.00  0.00     0.099 A 
HETATM   14  C   UNK N   1      40.154  43.050  49.751  0.00  0.00     0.040 A 
HETATM   15  C   UNK N   1      39.319  43.849  48.971  0.00  0.00     0.010 A 
BRANCH  12  16
HETATM   16  O   UNK N   1      42.298  45.564  51.336  0.00  0.00    -0.353 OA
HETATM   17  C   UNK N   1      42.228  45.697  52.708  0.00  0.00     0.210 C 
ENDBRANCH  12  16
BRANCH  13  18
HETATM   18  O   UNK N   1      41.945  42.821  51.282  0.00  0.00    -0.358 OA
HETATM   19  H   UNK N   1      41.765  42.636  52.215  0.00  0.00     0.218 HD
ENDBRANCH  13  18
ENDBRANCH   9  10
ENDBRANCH   6   9
BRANCH   5  20
HETATM   20  C   UNK N   1      40.250  44.425  45.662  0.00  0.00     0.049 C 
BRANCH  20  21
HETATM   21  C   UNK N   1      41.504  43.670  45.299  0.00  0.00    -0.055 A 
HETATM   22  C   UNK N   1      41.858  42.542  46.053  0.00  0.00     0.046 A 
HETATM   23  C   UNK N   1      43.018  41.807  45.753  0.00  0.00     0.101 A 
HETATM   24  C   UNK N   1      43.821  42.205  44.666  0.00  0.00     0.099 A 
HETATM   25  C   UNK N   1      43.464  43.331  43.910  0.00  0.00     0.040 A 
HETATM   26  C   UNK N   1      42.316  44.066  44.227  0.00  0.00     0.010 A 
BRANCH  23  27
HETATM   27  O   UNK N   1      43.383  40.721  46.491  0.00  0.00    -0.353 OA
HETATM   28  C   UNK N   1      42.526  39.721  46.907  0.00  0.00     0.210 C 
ENDBRANCH  23  27
BRANCH  24  29
HETATM   29  O   UNK N   1      44.936  41.519  44.338  0.00  0.00    -0.358 OA
HETATM   30  H   UNK N   1      45.116  40.630  44.677  0.00  0.00     0.218 HD
ENDBRANCH  24  29
ENDBRANCH  20  21
ENDBRANCH   5  20
TORSDOF 9
ENDMDL
MODEL 6
REMARK VINA RESULT:      -6.5      8.918     13.161
REMARK  9 active torsions:
REMARK  status: ('A' for Active; 'I' for Inactive)
REMARK    1  A    between atoms: C_5  and  C_20 
REMARK    2  A    between atoms: C_6  and  O_7 
REMARK    3  A    between atoms: C_6  and  C_9 
REMARK    4  A    between atoms: C_9  and  C_10 
REMARK    5  A    between atoms: C_12  and  O_13 
REMARK    6  A    between atoms: C_15  and  O_16 
REMARK    7  A    between atoms: C_20  and  C_21 
REMARK    8  A    between atoms: C_23  and  O_24 
REMARK    9  A    between atoms: C_26  and  O_27 
ROOT
HETATM    1  O   UNK N   1      28.614  55.924  40.582  0.00  0.00    -0.262 OA
HETATM    2  C   UNK N   1      29.176  55.346  41.499  0.00  0.00     0.294 C 
HETATM    3  O   UNK N   1      28.606  55.202  42.708  0.00  0.00    -0.319 OA
HETATM    4  C   UNK N   1      29.524  54.803  43.654  0.00  0.00     0.187 C 
HETATM    5  C   UNK N   1      30.634  54.157  42.815  0.00  0.00     0.059 C 
HETATM    6  C   UNK N   1      30.610  54.936  41.471  0.00  0.00     0.155 C 
ENDROOT
BRANCH   6   7
HETATM    7  O   UNK N   1      31.419  56.084  41.559  0.00  0.00    -0.379 OA
HETATM    8  H   UNK N   1      32.366  55.784  41.582  0.00  0.00     0.211 HD
ENDBRANCH   6   7
BRANCH   6   9
HETATM    9  C   UNK N   1      31.048  54.047  40.262  0.00  0.00     0.087 C 
BRANCH   9  10
HETATM   10  C   UNK N   1      29.904  53.331  39.572  0.00  0.00    -0.052 A 
HETATM   11  C   UNK N   1      29.206  52.303  40.229  0.00  0.00     0.047 A 
HETATM   12  C   UNK N   1      28.153  51.623  39.581  0.00  0.00     0.101 A 
HETATM   13  C   UNK N   1      27.815  51.975  38.258  0.00  0.00     0.099 A 
HETATM   14  C   UNK N   1      28.510  53.003  37.612  0.00  0.00     0.040 A 
HETATM   15  C   UNK N   1      29.536  53.685  38.264  0.00  0.00     0.010 A 
BRANCH  12  16
HETATM   16  O   UNK N   1      27.450  50.633  40.199  0.00  0.00    -0.353 OA
HETATM   17  C   UNK N   1      26.285  50.811  40.918  0.00  0.00     0.210 C 
ENDBRANCH  12  16
BRANCH  13  18
HETATM   18  O   UNK N   1      26.827  51.338  37.597  0.00  0.00    -0.358 OA
HETATM   19  H   UNK N   1      26.460  51.671  36.765  0.00  0.00     0.218 HD
ENDBRANCH  13  18
ENDBRANCH   9  10
ENDBRANCH   6   9
BRANCH   5  20
HETATM   20  C   UNK N   1      32.017  54.024  43.478  0.00  0.00     0.049 C 
BRANCH  20  21
HETATM   21  C   UNK N   1      32.513  52.600  43.494  0.00  0.00    -0.055 A 
HETATM   22  C   UNK N   1      31.731  51.604  42.893  0.00  0.00     0.046 A 
HETATM   23  C   UNK N   1      32.152  50.262  42.883  0.00  0.00     0.101 A 
HETATM   24  C   UNK N   1      33.386  49.925  43.472  0.00  0.00     0.099 A 
HETATM   25  C   UNK N   1      34.170  50.924  44.069  0.00  0.00     0.040 A 
HETATM   26  C   UNK N   1      33.734  52.253  44.088  0.00  0.00     0.010 A 
BRANCH  23  27
HETATM   27  O   UNK N   1      31.391  49.281  42.319  0.00  0.00    -0.353 OA
HETATM   28  C   UNK N   1      30.985  49.253  40.999  0.00  0.00     0.210 C 
ENDBRANCH  23  27
BRANCH  24  29
HETATM   29  O   UNK N   1      33.832  48.652  43.472  0.00  0.00    -0.358 OA
HETATM   30  H   UNK N   1      34.677  48.399  43.872  0.00  0.00     0.218 HD
ENDBRANCH  24  29
ENDBRANCH  20  21
ENDBRANCH   5  20
TORSDOF 9
ENDMDL
MODEL 7
REMARK VINA RESULT:      -6.1     13.629     15.932
REMARK  9 active torsions:
REMARK  status: ('A' for Active; 'I' for Inactive)
REMARK    1  A    between atoms: C_5  and  C_20 
REMARK    2  A    between atoms: C_6  and  O_7 
REMARK    3  A    between atoms: C_6  and  C_9 
REMARK    4  A    between atoms: C_9  and  C_10 
REMARK    5  A    between atoms: C_12  and  O_13 
REMARK    6  A    between atoms: C_15  and  O_16 
REMARK    7  A    between atoms: C_20  and  C_21 
REMARK    8  A    between atoms: C_23  and  O_24 
REMARK    9  A    between atoms: C_26  and  O_27 
ROOT
HETATM    1  O   UNK N   1      26.757  39.418  55.831  0.00  0.00    -0.262 OA
HETATM    2  C   UNK N   1      27.745  39.485  56.544  0.00  0.00     0.294 C 
HETATM    3  O   UNK N   1      28.604  38.459  56.673  0.00  0.00    -0.319 OA
HETATM    4  C   UNK N   1      29.452  38.643  57.742  0.00  0.00     0.187 C 
HETATM    5  C   UNK N   1      29.426  40.163  57.952  0.00  0.00     0.059 C 
HETATM    6  C   UNK N   1      28.002  40.593  57.508  0.00  0.00     0.155 C 
ENDROOT
BRANCH   6   7
HETATM    7  O   UNK N   1      27.103  40.484  58.586  0.00  0.00    -0.379 OA
HETATM    8  H   UNK N   1      27.434  39.763  59.184  0.00  0.00     0.211 HD
ENDBRANCH   6   7
BRANCH   6   9
HETATM    9  C   UNK N   1      27.976  42.041  56.918  0.00  0.00     0.087 C 
BRANCH   9  10
HETATM   10  C   UNK N   1      28.441  42.131  55.477  0.00  0.00    -0.052 A 
HETATM   11  C   UNK N   1      27.564  42.568  54.471  0.00  0.00     0.047 A 
HETATM   12  C   UNK N   1      27.989  42.634  53.127  0.00  0.00     0.101 A 
HETATM   13  C   UNK N   1      29.303  42.242  52.800  0.00  0.00     0.099 A 
HETATM   14  C   UNK N   1      30.173  41.813  53.807  0.00  0.00     0.040 A 
HETATM   15  C   UNK N   1      29.753  41.768  55.136  0.00  0.00     0.010 A 
BRANCH  12  16
HETATM   16  O   UNK N   1      27.165  43.068  52.133  0.00  0.00    -0.353 OA
HETATM   17  C   UNK N   1      26.116  43.952  52.295  0.00  0.00     0.210 C 
ENDBRANCH  12  16
BRANCH  13  18
HETATM   18  O   UNK N   1      29.744  42.273  51.525  0.00  0.00    -0.358 OA
HETATM   19  H   UNK N   1      30.627  41.965  51.273  0.00  0.00     0.218 HD
ENDBRANCH  13  18
ENDBRANCH   9  10
ENDBRANCH   6   9
BRANCH   5  20
HETATM   20  C   UNK N   1      29.875  40.680  59.331  0.00  0.00     0.049 C 
BRANCH  20  21
HETATM   21  C   UNK N   1      31.201  41.397  59.274  0.00  0.00    -0.055 A 
HETATM   22  C   UNK N   1      31.321  42.534  58.463  0.00  0.00     0.046 A 
HETATM   23  C   UNK N   1      32.537  43.235  58.377  0.00  0.00     0.101 A 
HETATM   24  C   UNK N   1      33.640  42.792  59.133  0.00  0.00     0.099 A 
HETATM   25  C   UNK N   1      33.517  41.656  59.946  0.00  0.00     0.040 A 
HETATM   26  C   UNK N   1      32.308  40.956  60.013  0.00  0.00     0.010 A 
BRANCH  23  27
HETATM   27  O   UNK N   1      32.673  44.330  57.577  0.00  0.00    -0.353 OA
HETATM   28  C   UNK N   1      31.705  45.297  57.387  0.00  0.00     0.210 C 
ENDBRANCH  23  27
BRANCH  24  29
HETATM   29  O   UNK N   1      34.821  43.444  59.088  0.00  0.00    -0.358 OA
HETATM   30  H   UNK N   1      35.629  43.079  59.478  0.00  0.00     0.218 HD
ENDBRANCH  24  29
ENDBRANCH  20  21
ENDBRANCH   5  20
TORSDOF 9
ENDMDL
MODEL 8
REMARK VINA RESULT:      -6.1     11.418     15.138
REMARK  9 active torsions:
REMARK  status: ('A' for Active; 'I' for Inactive)
REMARK    1  A    between atoms: C_5  and  C_20 
REMARK    2  A    between atoms: C_6  and  O_7 
REMARK    3  A    between atoms: C_6  and  C_9 
REMARK    4  A    between atoms: C_9  and  C_10 
REMARK    5  A    between atoms: C_12  and  O_13 
REMARK    6  A    between atoms: C_15  and  O_16 
REMARK    7  A    between atoms: C_20  and  C_21 
REMARK    8  A    between atoms: C_23  and  O_24 
REMARK    9  A    between atoms: C_26  and  O_27 
ROOT
HETATM    1  O   UNK N   1      31.576  53.928  45.611  0.00  0.00    -0.262 OA
HETATM    2  C   UNK N   1      31.457  53.479  44.482  0.00  0.00     0.294 C 
HETATM    3  O   UNK N   1      31.913  52.261  44.146  0.00  0.00    -0.319 OA
HETATM    4  C   UNK N   1      31.949  52.094  42.780  0.00  0.00     0.187 C 
HETATM    5  C   UNK N   1      30.934  53.128  42.275  0.00  0.00     0.059 C 
HETATM    6  C   UNK N   1      31.009  54.284  43.309  0.00  0.00     0.155 C 
ENDROOT
BRANCH   6   7
HETATM    7  O   UNK N   1      32.026  55.190  42.955  0.00  0.00    -0.379 OA
HETATM    8  H   UNK N   1      31.751  55.640  42.113  0.00  0.00     0.211 HD
ENDBRANCH   6   7
BRANCH   6   9
HETATM    9  C   UNK N   1      29.643  55.029  43.466  0.00  0.00     0.087 C 
BRANCH   9  10
HETATM   10  C   UNK N   1      29.148  55.691  42.195  0.00  0.00    -0.052 A 
HETATM   11  C   UNK N   1      27.918  55.317  41.628  0.00  0.00     0.047 A 
HETATM   12  C   UNK N   1      27.465  55.919  40.435  0.00  0.00     0.101 A 
HETATM   13  C   UNK N   1      28.268  56.892  39.806  0.00  0.00     0.099 A 
HETATM   14  C   UNK N   1      29.489  57.264  40.378  0.00  0.00     0.040 A 
HETATM   15  C   UNK N   1      29.922  56.680  41.568  0.00  0.00     0.010 A 
BRANCH  12  16
HETATM   16  O   UNK N   1      26.270  55.586  39.871  0.00  0.00    -0.353 OA
HETATM   17  C   UNK N   1      25.591  54.403  40.081  0.00  0.00     0.210 C 
ENDBRANCH  12  16
BRANCH  13  18
HETATM   18  O   UNK N   1      27.881  57.478  38.655  0.00  0.00    -0.358 OA
HETATM   19  H   UNK N   1      26.950  57.553  38.396  0.00  0.00     0.218 HD
ENDBRANCH  13  18
ENDBRANCH   9  10
ENDBRANCH   6   9
BRANCH   5  20
HETATM   20  C   UNK N   1      31.051  53.552  40.799  0.00  0.00     0.049 C 
BRANCH  20  21
HETATM   21  C   UNK N   1      29.924  53.014  39.954  0.00  0.00    -0.055 A 
HETATM   22  C   UNK N   1      29.119  51.990  40.472  0.00  0.00     0.046 A 
HETATM   23  C   UNK N   1      28.056  51.456  39.722  0.00  0.00     0.101 A 
HETATM   24  C   UNK N   1      27.792  51.975  38.439  0.00  0.00     0.099 A 
HETATM   25  C   UNK N   1      28.596  53.003  37.924  0.00  0.00     0.040 A 
HETATM   26  C   UNK N   1      29.661  53.516  38.672  0.00  0.00     0.010 A 
BRANCH  23  27
HETATM   27  O   UNK N   1      27.279  50.446  40.206  0.00  0.00    -0.353 OA
HETATM   28  C   UNK N   1      26.159  50.618  40.996  0.00  0.00     0.210 C 
ENDBRANCH  23  27
BRANCH  24  29
HETATM   29  O   UNK N   1      26.775  51.499  37.692  0.00  0.00    -0.358 OA
HETATM   30  H   UNK N   1      26.394  52.001  36.957  0.00  0.00     0.218 HD
ENDBRANCH  24  29
ENDBRANCH  20  21
ENDBRANCH   5  20
TORSDOF 9
ENDMDL
MODEL 9
REMARK VINA RESULT:      -6.0     12.865     16.344
REMARK  9 active torsions:
REMARK  status: ('A' for Active; 'I' for Inactive)
REMARK    1  A    between atoms: C_5  and  C_20 
REMARK    2  A    between atoms: C_6  and  O_7 
REMARK    3  A    between atoms: C_6  and  C_9 
REMARK    4  A    between atoms: C_9  and  C_10 
REMARK    5  A    between atoms: C_12  and  O_13 
REMARK    6  A    between atoms: C_15  and  O_16 
REMARK    7  A    between atoms: C_20  and  C_21 
REMARK    8  A    between atoms: C_23  and  O_24 
REMARK    9  A    between atoms: C_26  and  O_27 
ROOT
HETATM    1  O   UNK N   1      31.038  55.671  43.754  0.00  0.00    -0.262 OA
HETATM    2  C   UNK N   1      30.882  54.906  42.815  0.00  0.00     0.294 C 
HETATM    3  O   UNK N   1      31.033  53.577  42.944  0.00  0.00    -0.319 OA
HETATM    4  C   UNK N   1      31.114  52.957  41.718  0.00  0.00     0.187 C 
HETATM    5  C   UNK N   1      30.432  53.957  40.774  0.00  0.00     0.059 C 
HETATM    6  C   UNK N   1      30.732  55.347  41.399  0.00  0.00     0.155 C 
ENDROOT
BRANCH   6   7
HETATM    7  O   UNK N   1      31.968  55.834  40.933  0.00  0.00    -0.379 OA
HETATM    8  H   UNK N   1      32.007  56.805  41.139  0.00  0.00     0.211 HD
ENDBRANCH   6   7
BRANCH   6   9
HETATM    9  C   UNK N   1      29.594  56.382  41.116  0.00  0.00     0.087 C 
BRANCH   9  10
HETATM   10  C   UNK N   1      28.265  55.755  40.742  0.00  0.00    -0.052 A 
HETATM   11  C   UNK N   1      27.695  55.993  39.480  0.00  0.00     0.047 A 
HETATM   12  C   UNK N   1      26.449  55.425  39.138  0.00  0.00     0.101 A 
HETATM   13  C   UNK N   1      25.772  54.627  40.082  0.00  0.00     0.099 A 
HETATM   14  C   UNK N   1      26.348  54.389  41.334  0.00  0.00     0.040 A 
HETATM   15  C   UNK N   1      27.589  54.936  41.660  0.00  0.00     0.010 A 
BRANCH  12  16
HETATM   16  O   UNK N   1      25.879  55.626  37.917  0.00  0.00    -0.353 OA
HETATM   17  C   UNK N   1      25.141  56.734  37.554  0.00  0.00     0.210 C 
ENDBRANCH  12  16
BRANCH  13  18
HETATM   18  O   UNK N   1      24.572  54.080  39.801  0.00  0.00    -0.358 OA
HETATM   19  H   UNK N   1      23.759  54.347  40.256  0.00  0.00     0.218 HD
ENDBRANCH  13  18
ENDBRANCH   9  10
ENDBRANCH   6   9
BRANCH   5  20
HETATM   20  C   UNK N   1      30.750  53.823  39.274  0.00  0.00     0.049 C 
BRANCH  20  21
HETATM   21  C   UNK N   1      29.590  53.267  38.487  0.00  0.00    -0.055 A 
HETATM   22  C   UNK N   1      28.694  52.398  39.125  0.00  0.00     0.046 A 
HETATM   23  C   UNK N   1      27.597  51.854  38.432  0.00  0.00     0.101 A 
HETATM   24  C   UNK N   1      27.393  52.208  37.084  0.00  0.00     0.099 A 
HETATM   25  C   UNK N   1      28.288  53.081  36.448  0.00  0.00     0.040 A 
HETATM   26  C   UNK N   1      29.385  53.603  37.141  0.00  0.00     0.010 A 
BRANCH  23  27
HETATM   27  O   UNK N   1      26.730  50.992  39.035  0.00  0.00    -0.353 OA
HETATM   28  C   UNK N   1      26.624  50.801  40.399  0.00  0.00     0.210 C 
ENDBRANCH  23  27
BRANCH  24  29
HETATM   29  O   UNK N   1      26.346  51.718  36.388  0.00  0.00    -0.358 OA
HETATM   30  H   UNK N   1      25.818  52.269  35.792  0.00  0.00     0.218 HD
ENDBRANCH  24  29
ENDBRANCH  20  21
ENDBRANCH   5  20
TORSDOF 9
ENDMDL
