MODEL 1
REMARK VINA RESULT:      -5.3      0.000      0.000
REMARK  6 active torsions:
REMARK  status: ('A' for Active; 'I' for Inactive)
REMARK    1  A    between atoms: C_4  and  C_5 
REMARK    2  A    between atoms: C_5  and  O_6 
REMARK    3  A    between atoms: C_11  and  N_12 
REMARK    4  A    between atoms: C_15  and  O_16 
REMARK    5  A    between atoms: C_22  and  O_23 
REMARK    6  A    between atoms: O_23  and  C_24 
ROOT
HETATM    1  O   UNK N   1      31.013  35.842  55.104  0.00  0.00    -0.259 OA
HETATM    2  C   UNK N   1      30.373  36.802  55.499  0.00  0.00     0.295 C 
HETATM    3  O   UNK N   1      30.359  37.959  54.781  0.00  0.00    -0.308 OA
HETATM    4  C   UNK N   1      29.218  38.756  54.811  0.00  0.00     0.173 C 
HETATM    5  C   UNK N   1      28.918  39.230  56.305  0.00  0.00     0.042 C 
HETATM    6  C   UNK N   1      29.240  38.086  57.288  0.00  0.00     0.012 C 
HETATM    7  C   UNK N   1      29.546  36.739  56.727  0.00  0.00     0.064 C 
HETATM    8  C   UNK N   1      29.148  35.549  57.242  0.00  0.00     0.098 C 
HETATM    9  C   UNK N   1      29.459  38.354  58.601  0.00  0.00     0.125 C 
HETATM   10  C   UNK N   1      29.536  39.760  59.052  0.00  0.00     0.212 C 
HETATM   11  O   UNK N   1      29.609  40.015  60.245  0.00  0.00    -0.285 OA
HETATM   12  C   UNK N   1      29.806  40.823  58.043  0.00  0.00     0.006 C 
HETATM   13  C   UNK N   1      29.636  40.546  56.709  0.00  0.00    -0.024 C 
HETATM   14  C   UNK N   1      29.948  41.600  55.636  0.00  0.00     0.164 C 
HETATM   15  C   UNK N   1      30.801  42.774  56.135  0.00  0.00     0.055 C 
HETATM   16  C   UNK N   1      30.321  43.306  57.490  0.00  0.00     0.027 C 
HETATM   17  C   UNK N   1      31.364  44.218  58.065  0.00  0.00     0.136 C 
HETATM   18  O   UNK N   1      31.569  45.349  57.651  0.00  0.00    -0.297 OA
HETATM   19  C   UNK N   1      32.130  43.617  59.195  0.00  0.00     0.080 C 
HETATM   20  C   UNK N   1      31.747  42.138  59.071  0.00  0.00     0.018 C 
HETATM   21  C   UNK N   1      30.309  42.176  58.541  0.00  0.00     0.039 C 
HETATM   22  C   UNK N   1      28.941  43.994  57.412  0.00  0.00     0.024 C 
HETATM   23  C   UNK N   1      27.406  39.542  56.491  0.00  0.00     0.028 C 
ENDROOT
BRANCH   8  24
HETATM   24  N   UNK N   1      28.232  35.447  58.324  0.00  0.00    -0.407 N 
HETATM   25  H   UNK N   1      28.412  35.898  59.232  0.00  0.00     0.155 HD
HETATM   26  H   UNK N   1      27.303  35.035  58.160  0.00  0.00     0.155 HD
ENDBRANCH   8  24
BRANCH   9  27
HETATM   27  O   UNK N   1      29.774  37.364  59.471  0.00  0.00    -0.356 OA
HETATM   28  H   UNK N   1      29.605  37.439  60.421  0.00  0.00     0.218 HD
ENDBRANCH   9  27
BRANCH   4  29
HETATM   29  C   UNK N   1      28.085  37.966  54.102  0.00  0.00     0.201 C 
BRANCH  29  30
HETATM   30  O   UNK N   1      27.766  38.650  52.906  0.00  0.00    -0.393 OA
HETATM   31  C   UNK N   1      26.485  39.222  53.005  0.00  0.00     0.201 C 
ENDBRANCH  29  30
ENDBRANCH   4  29
BRANCH  14  32
HETATM   32  O   UNK N   1      28.754  42.040  55.089  0.00  0.00    -0.312 OA
BRANCH  32  33
HETATM   33  C   UNK N   1      28.540  42.253  53.765  0.00  0.00     0.255 C 
HETATM   34  O   UNK N   1      29.336  41.853  52.927  0.00  0.00    -0.266 OA
HETATM   35  C   UNK N   1      27.302  42.971  53.331  0.00  0.00     0.126 C 
ENDBRANCH  32  33
ENDBRANCH  14  32
TORSDOF 6
ENDMDL
MODEL 2
REMARK VINA RESULT:      -4.7      2.892      6.776
REMARK  6 active torsions:
REMARK  status: ('A' for Active; 'I' for Inactive)
REMARK    1  A    between atoms: C_4  and  C_5 
REMARK    2  A    between atoms: C_5  and  O_6 
REMARK    3  A    between atoms: C_11  and  N_12 
REMARK    4  A    between atoms: C_15  and  O_16 
REMARK    5  A    between atoms: C_22  and  O_23 
REMARK    6  A    between atoms: O_23  and  C_24 
ROOT
HETATM    1  O   UNK N   1      32.705  42.519  60.360  0.00  0.00    -0.259 OA
HETATM    2  C   UNK N   1      31.760  42.401  59.598  0.00  0.00     0.295 C 
HETATM    3  O   UNK N   1      30.716  41.589  59.921  0.00  0.00    -0.308 OA
HETATM    4  C   UNK N   1      29.441  41.921  59.473  0.00  0.00     0.173 C 
HETATM    5  C   UNK N   1      29.413  41.964  57.878  0.00  0.00     0.042 C 
HETATM    6  C   UNK N   1      30.733  42.560  57.350  0.00  0.00     0.012 C 
HETATM    7  C   UNK N   1      31.675  43.169  58.333  0.00  0.00     0.064 C 
HETATM    8  C   UNK N   1      32.409  44.294  58.147  0.00  0.00     0.098 C 
HETATM    9  C   UNK N   1      31.122  42.334  56.069  0.00  0.00     0.125 C 
HETATM   10  C   UNK N   1      30.351  41.392  55.231  0.00  0.00     0.212 C 
HETATM   11  O   UNK N   1      30.614  41.273  54.044  0.00  0.00    -0.285 OA
HETATM   12  C   UNK N   1      29.458  40.403  55.901  0.00  0.00     0.006 C 
HETATM   13  C   UNK N   1      29.100  40.596  57.212  0.00  0.00    -0.024 C 
HETATM   14  C   UNK N   1      28.221  39.576  57.951  0.00  0.00     0.164 C 
HETATM   15  C   UNK N   1      28.126  38.209  57.260  0.00  0.00     0.055 C 
HETATM   16  C   UNK N   1      27.896  38.336  55.750  0.00  0.00     0.027 C 
HETATM   17  C   UNK N   1      28.128  37.007  55.097  0.00  0.00     0.136 C 
HETATM   18  O   UNK N   1      27.343  36.073  55.175  0.00  0.00    -0.297 OA
HETATM   19  C   UNK N   1      29.408  36.927  54.336  0.00  0.00     0.080 C 
HETATM   20  C   UNK N   1      30.141  38.175  54.840  0.00  0.00     0.018 C 
HETATM   21  C   UNK N   1      29.014  39.180  55.102  0.00  0.00     0.039 C 
HETATM   22  C   UNK N   1      26.505  38.910  55.400  0.00  0.00     0.024 C 
HETATM   23  C   UNK N   1      28.285  42.906  57.372  0.00  0.00     0.028 C 
ENDROOT
BRANCH   8  24
HETATM   24  N   UNK N   1      32.245  45.141  57.017  0.00  0.00    -0.407 N 
HETATM   25  H   UNK N   1      32.517  44.841  56.070  0.00  0.00     0.155 HD
HETATM   26  H   UNK N   1      31.715  46.017  57.117  0.00  0.00     0.155 HD
ENDBRANCH   8  24
BRANCH   9  27
HETATM   27  O   UNK N   1      32.294  42.825  55.600  0.00  0.00    -0.356 OA
HETATM   28  H   UNK N   1      32.489  43.773  55.586  0.00  0.00     0.218 HD
ENDBRANCH   9  27
BRANCH   4  29
HETATM   29  C   UNK N   1      29.022  43.226  60.201  0.00  0.00     0.201 C 
BRANCH  29  30
HETATM   30  O   UNK N   1      28.050  42.886  61.169  0.00  0.00    -0.393 OA
HETATM   31  C   UNK N   1      26.785  43.353  60.766  0.00  0.00     0.201 C 
ENDBRANCH  29  30
ENDBRANCH   4  29
BRANCH  14  32
HETATM   32  O   UNK N   1      26.968  40.133  58.145  0.00  0.00    -0.312 OA
BRANCH  32  33
HETATM   33  C   UNK N   1      26.205  39.956  59.255  0.00  0.00     0.255 C 
HETATM   34  O   UNK N   1      24.995  40.134  59.221  0.00  0.00    -0.266 OA
HETATM   35  C   UNK N   1      26.857  39.520  60.528  0.00  0.00     0.126 C 
ENDBRANCH  32  33
ENDBRANCH  14  32
TORSDOF 6
ENDMDL
MODEL 3
REMARK VINA RESULT:      -4.5      3.436      8.033
REMARK  6 active torsions:
REMARK  status: ('A' for Active; 'I' for Inactive)
REMARK    1  A    between atoms: C_4  and  C_5 
REMARK    2  A    between atoms: C_5  and  O_6 
REMARK    3  A    between atoms: C_11  and  N_12 
REMARK    4  A    between atoms: C_15  and  O_16 
REMARK    5  A    between atoms: C_22  and  O_23 
REMARK    6  A    between atoms: O_23  and  C_24 
ROOT
HETATM    1  O   UNK N   1      29.315  49.014  57.382  0.00  0.00    -0.259 OA
HETATM    2  C   UNK N   1      29.128  47.853  57.705  0.00  0.00     0.295 C 
HETATM    3  O   UNK N   1      30.172  46.980  57.761  0.00  0.00    -0.308 OA
HETATM    4  C   UNK N   1      30.135  45.947  58.693  0.00  0.00     0.173 C 
HETATM    5  C   UNK N   1      28.869  45.012  58.427  0.00  0.00     0.042 C 
HETATM    6  C   UNK N   1      27.667  45.875  57.996  0.00  0.00     0.012 C 
HETATM    7  C   UNK N   1      27.789  47.358  58.101  0.00  0.00     0.064 C 
HETATM    8  C   UNK N   1      26.816  48.214  58.499  0.00  0.00     0.098 C 
HETATM    9  C   UNK N   1      26.623  45.313  57.334  0.00  0.00     0.125 C 
HETATM   10  C   UNK N   1      26.715  43.904  56.897  0.00  0.00     0.212 C 
HETATM   11  O   UNK N   1      25.739  43.350  56.412  0.00  0.00    -0.285 OA
HETATM   12  C   UNK N   1      28.061  43.271  56.795  0.00  0.00     0.006 C 
HETATM   13  C   UNK N   1      29.133  43.860  57.419  0.00  0.00    -0.024 C 
HETATM   14  C   UNK N   1      30.544  43.265  57.299  0.00  0.00     0.164 C 
HETATM   15  C   UNK N   1      30.705  42.252  56.157  0.00  0.00     0.055 C 
HETATM   16  C   UNK N   1      29.541  41.258  56.094  0.00  0.00     0.027 C 
HETATM   17  C   UNK N   1      29.591  40.514  54.793  0.00  0.00     0.136 C 
HETATM   18  O   UNK N   1      30.404  39.634  54.552  0.00  0.00    -0.297 OA
HETATM   19  C   UNK N   1      28.550  40.945  53.814  0.00  0.00     0.080 C 
HETATM   20  C   UNK N   1      28.061  42.252  54.446  0.00  0.00     0.018 C 
HETATM   21  C   UNK N   1      28.198  42.005  55.953  0.00  0.00     0.039 C 
HETATM   22  C   UNK N   1      29.506  40.295  57.301  0.00  0.00     0.024 C 
HETATM   23  C   UNK N   1      28.433  44.290  59.732  0.00  0.00     0.028 C 
ENDROOT
BRANCH   8  24
HETATM   24  N   UNK N   1      25.573  47.773  59.030  0.00  0.00    -0.407 N 
HETATM   25  H   UNK N   1      25.373  46.776  59.188  0.00  0.00     0.155 HD
HETATM   26  H   UNK N   1      24.909  48.468  59.400  0.00  0.00     0.155 HD
ENDBRANCH   8  24
BRANCH   9  27
HETATM   27  O   UNK N   1      25.573  46.064  56.922  0.00  0.00    -0.356 OA
HETATM   28  H   UNK N   1      24.926  45.738  56.280  0.00  0.00     0.218 HD
ENDBRANCH   9  27
BRANCH   4  29
HETATM   29  C   UNK N   1      30.226  46.592  60.102  0.00  0.00     0.201 C 
BRANCH  29  30
HETATM   30  O   UNK N   1      31.088  45.792  60.887  0.00  0.00    -0.393 OA
HETATM   31  C   UNK N   1      30.801  45.973  62.253  0.00  0.00     0.201 C 
ENDBRANCH  29  30
ENDBRANCH   4  29
BRANCH  14  32
HETATM   32  O   UNK N   1      30.894  42.711  58.519  0.00  0.00    -0.312 OA
BRANCH  32  33
HETATM   33  C   UNK N   1      32.116  42.828  59.101  0.00  0.00     0.255 C 
HETATM   34  O   UNK N   1      33.063  43.297  58.485  0.00  0.00    -0.266 OA
HETATM   35  C   UNK N   1      32.293  42.393  60.520  0.00  0.00     0.126 C 
ENDBRANCH  32  33
ENDBRANCH  14  32
TORSDOF 6
ENDMDL
MODEL 4
REMARK VINA RESULT:      -4.5      2.731      6.805
REMARK  6 active torsions:
REMARK  status: ('A' for Active; 'I' for Inactive)
REMARK    1  A    between atoms: C_4  and  C_5 
REMARK    2  A    between atoms: C_5  and  O_6 
REMARK    3  A    between atoms: C_11  and  N_12 
REMARK    4  A    between atoms: C_15  and  O_16 
REMARK    5  A    between atoms: C_22  and  O_23 
REMARK    6  A    between atoms: O_23  and  C_24 
ROOT
HETATM    1  O   UNK N   1      30.808  44.468  57.886  0.00  0.00    -0.259 OA
HETATM    2  C   UNK N   1      29.887  43.783  57.475  0.00  0.00     0.295 C 
HETATM    3  O   UNK N   1      30.137  42.690  56.702  0.00  0.00    -0.308 OA
HETATM    4  C   UNK N   1      29.277  41.598  56.783  0.00  0.00     0.173 C 
HETATM    5  C   UNK N   1      27.798  42.032  56.366  0.00  0.00     0.042 C 
HETATM    6  C   UNK N   1      27.502  43.448  56.897  0.00  0.00     0.012 C 
HETATM    7  C   UNK N   1      28.479  44.067  57.839  0.00  0.00     0.064 C 
HETATM    8  C   UNK N   1      28.175  44.824  58.922  0.00  0.00     0.098 C 
HETATM    9  C   UNK N   1      26.506  44.190  56.348  0.00  0.00     0.125 C 
HETATM   10  C   UNK N   1      25.809  43.693  55.143  0.00  0.00     0.212 C 
HETATM   11  O   UNK N   1      24.832  44.288  54.713  0.00  0.00    -0.285 OA
HETATM   12  C   UNK N   1      26.470  42.645  54.315  0.00  0.00     0.006 C 
HETATM   13  C   UNK N   1      27.512  41.923  54.843  0.00  0.00    -0.024 C 
HETATM   14  C   UNK N   1      28.249  40.868  54.006  0.00  0.00     0.164 C 
HETATM   15  C   UNK N   1      27.999  40.975  52.495  0.00  0.00     0.055 C 
HETATM   16  C   UNK N   1      26.518  41.190  52.166  0.00  0.00     0.027 C 
HETATM   17  C   UNK N   1      26.381  41.600  50.730  0.00  0.00     0.136 C 
HETATM   18  O   UNK N   1      26.515  40.825  49.794  0.00  0.00    -0.297 OA
HETATM   19  C   UNK N   1      26.062  43.045  50.545  0.00  0.00     0.080 C 
HETATM   20  C   UNK N   1      26.353  43.602  51.943  0.00  0.00     0.018 C 
HETATM   21  C   UNK N   1      25.981  42.448  52.881  0.00  0.00     0.039 C 
HETATM   22  C   UNK N   1      25.643  39.960  52.494  0.00  0.00     0.024 C 
HETATM   23  C   UNK N   1      26.744  41.098  57.024  0.00  0.00     0.028 C 
ENDROOT
BRANCH   8  24
HETATM   24  N   UNK N   1      26.845  44.995  59.393  0.00  0.00    -0.407 N 
HETATM   25  H   UNK N   1      26.157  45.565  58.882  0.00  0.00     0.155 HD
HETATM   26  H   UNK N   1      26.515  44.425  60.185  0.00  0.00     0.155 HD
ENDBRANCH   8  24
BRANCH   9  27
HETATM   27  O   UNK N   1      26.254  45.449  56.783  0.00  0.00    -0.356 OA
HETATM   28  H   UNK N   1      25.529  45.649  57.392  0.00  0.00     0.218 HD
ENDBRANCH   9  27
BRANCH   4  29
HETATM   29  C   UNK N   1      29.437  40.988  58.201  0.00  0.00     0.201 C 
BRANCH  29  30
HETATM   30  O   UNK N   1      29.729  39.613  58.047  0.00  0.00    -0.393 OA
HETATM   31  C   UNK N   1      28.920  38.850  58.909  0.00  0.00     0.201 C 
ENDBRANCH  29  30
ENDBRANCH   4  29
BRANCH  14  32
HETATM   32  O   UNK N   1      27.915  39.612  54.485  0.00  0.00    -0.312 OA
BRANCH  32  33
HETATM   33  C   UNK N   1      28.713  38.516  54.409  0.00  0.00     0.255 C 
HETATM   34  O   UNK N   1      29.834  38.519  54.899  0.00  0.00    -0.266 OA
HETATM   35  C   UNK N   1      28.201  37.285  53.733  0.00  0.00     0.126 C 
ENDBRANCH  32  33
ENDBRANCH  14  32
TORSDOF 6
ENDMDL
MODEL 5
REMARK VINA RESULT:      -4.4     19.673     22.936
REMARK  6 active torsions:
REMARK  status: ('A' for Active; 'I' for Inactive)
REMARK    1  A    between atoms: C_4  and  C_5 
REMARK    2  A    between atoms: C_5  and  O_6 
REMARK    3  A    between atoms: C_11  and  N_12 
REMARK    4  A    between atoms: C_15  and  O_16 
REMARK    5  A    between atoms: C_22  and  O_23 
REMARK    6  A    between atoms: O_23  and  C_24 
ROOT
HETATM    1  O   UNK N   1      44.814  49.572  61.151  0.00  0.00    -0.259 OA
HETATM    2  C   UNK N   1      45.612  50.494  61.178  0.00  0.00     0.295 C 
HETATM    3  O   UNK N   1      45.251  51.727  60.725  0.00  0.00    -0.308 OA
HETATM    4  C   UNK N   1      45.820  52.853  61.312  0.00  0.00     0.173 C 
HETATM    5  C   UNK N   1      47.405  52.828  61.130  0.00  0.00     0.042 C 
HETATM    6  C   UNK N   1      47.922  51.382  61.274  0.00  0.00     0.012 C 
HETATM    7  C   UNK N   1      46.971  50.336  61.748  0.00  0.00     0.064 C 
HETATM    8  C   UNK N   1      47.258  49.322  62.600  0.00  0.00     0.098 C 
HETATM    9  C   UNK N   1      49.134  51.036  60.770  0.00  0.00     0.125 C 
HETATM   10  C   UNK N   1      49.887  52.011  59.952  0.00  0.00     0.212 C 
HETATM   11  O   UNK N   1      51.029  51.759  59.598  0.00  0.00    -0.285 OA
HETATM   12  C   UNK N   1      49.150  53.154  59.342  0.00  0.00     0.006 C 
HETATM   13  C   UNK N   1      47.901  53.481  59.811  0.00  0.00    -0.024 C 
HETATM   14  C   UNK N   1      47.091  54.621  59.177  0.00  0.00     0.164 C 
HETATM   15  C   UNK N   1      47.599  55.064  57.798  0.00  0.00     0.055 C 
HETATM   16  C   UNK N   1      49.124  55.213  57.761  0.00  0.00     0.027 C 
HETATM   17  C   UNK N   1      49.578  55.331  56.337  0.00  0.00     0.136 C 
HETATM   18  O   UNK N   1      49.427  56.341  55.665  0.00  0.00    -0.297 OA
HETATM   19  C   UNK N   1      50.239  54.101  55.813  0.00  0.00     0.080 C 
HETATM   20  C   UNK N   1      49.860  53.072  56.883  0.00  0.00     0.018 C 
HETATM   21  C   UNK N   1      49.806  53.892  58.177  0.00  0.00     0.039 C 
HETATM   22  C   UNK N   1      49.635  56.387  58.624  0.00  0.00     0.024 C 
HETATM   23  C   UNK N   1      48.103  53.646  62.252  0.00  0.00     0.028 C 
ENDROOT
BRANCH   8  24
HETATM   24  N   UNK N   1      48.499  49.221  63.287  0.00  0.00    -0.407 N 
HETATM   25  H   UNK N   1      49.398  49.354  62.805  0.00  0.00     0.155 HD
HETATM   26  H   UNK N   1      48.501  49.156  64.315  0.00  0.00     0.155 HD
ENDBRANCH   8  24
BRANCH   9  27
HETATM   27  O   UNK N   1      49.589  49.763  60.861  0.00  0.00    -0.356 OA
HETATM   28  H   UNK N   1      50.214  49.486  61.546  0.00  0.00     0.218 HD
ENDBRANCH   9  27
BRANCH   4  29
HETATM   29  C   UNK N   1      45.300  52.923  62.773  0.00  0.00     0.201 C 
BRANCH  29  30
HETATM   30  O   UNK N   1      43.951  53.342  62.731  0.00  0.00    -0.393 OA
HETATM   31  C   UNK N   1      43.141  52.432  63.435  0.00  0.00     0.201 C 
ENDBRANCH  29  30
ENDBRANCH   4  29
BRANCH  14  32
HETATM   32  O   UNK N   1      47.053  55.682  60.066  0.00  0.00    -0.312 OA
BRANCH  32  33
HETATM   33  C   UNK N   1      46.087  56.637  60.093  0.00  0.00     0.255 C 
HETATM   34  O   UNK N   1      46.277  57.738  59.595  0.00  0.00    -0.266 OA
HETATM   35  C   UNK N   1      44.768  56.324  60.725  0.00  0.00     0.126 C 
ENDBRANCH  32  33
ENDBRANCH  14  32
TORSDOF 6
ENDMDL
MODEL 6
REMARK VINA RESULT:      -4.3     19.709     24.015
REMARK  6 active torsions:
REMARK  status: ('A' for Active; 'I' for Inactive)
REMARK    1  A    between atoms: C_4  and  C_5 
REMARK    2  A    between atoms: C_5  and  O_6 
REMARK    3  A    between atoms: C_11  and  N_12 
REMARK    4  A    between atoms: C_15  and  O_16 
REMARK    5  A    between atoms: C_22  and  O_23 
REMARK    6  A    between atoms: O_23  and  C_24 
ROOT
HETATM    1  O   UNK N   1      49.777  54.213  55.572  0.00  0.00    -0.259 OA
HETATM    2  C   UNK N   1      49.809  53.887  56.746  0.00  0.00     0.295 C 
HETATM    3  O   UNK N   1      50.108  52.605  57.095  0.00  0.00    -0.308 OA
HETATM    4  C   UNK N   1      50.773  52.371  58.295  0.00  0.00     0.173 C 
HETATM    5  C   UNK N   1      49.900  52.906  59.520  0.00  0.00     0.042 C 
HETATM    6  C   UNK N   1      49.198  54.220  59.123  0.00  0.00     0.012 C 
HETATM    7  C   UNK N   1      49.584  54.866  57.836  0.00  0.00     0.064 C 
HETATM    8  C   UNK N   1      49.723  56.197  57.620  0.00  0.00     0.098 C 
HETATM    9  C   UNK N   1      48.109  54.648  59.812  0.00  0.00     0.125 C 
HETATM   10  C   UNK N   1      47.512  53.775  60.844  0.00  0.00     0.212 C 
HETATM   11  O   UNK N   1      46.611  54.196  61.555  0.00  0.00    -0.285 OA
HETATM   12  C   UNK N   1      47.820  52.316  60.813  0.00  0.00     0.006 C 
HETATM   13  C   UNK N   1      48.889  51.867  60.079  0.00  0.00    -0.024 C 
HETATM   14  C   UNK N   1      49.211  50.368  59.984  0.00  0.00     0.164 C 
HETATM   15  C   UNK N   1      48.063  49.449  60.422  0.00  0.00     0.055 C 
HETATM   16  C   UNK N   1      47.404  49.921  61.722  0.00  0.00     0.027 C 
HETATM   17  C   UNK N   1      46.113  49.185  61.922  0.00  0.00     0.136 C 
HETATM   18  O   UNK N   1      46.053  48.016  62.274  0.00  0.00    -0.297 OA
HETATM   19  C   UNK N   1      44.901  50.013  61.656  0.00  0.00     0.080 C 
HETATM   20  C   UNK N   1      45.510  51.220  60.934  0.00  0.00     0.018 C 
HETATM   21  C   UNK N   1      46.894  51.371  61.575  0.00  0.00     0.039 C 
HETATM   22  C   UNK N   1      48.332  49.791  62.950  0.00  0.00     0.024 C 
HETATM   23  C   UNK N   1      50.807  53.253  60.733  0.00  0.00     0.028 C 
ENDROOT
BRANCH   8  24
HETATM   24  N   UNK N   1      49.668  57.157  58.667  0.00  0.00    -0.407 N 
HETATM   25  H   UNK N   1      48.906  57.162  59.359  0.00  0.00     0.155 HD
HETATM   26  H   UNK N   1      50.477  57.774  58.828  0.00  0.00     0.155 HD
ENDBRANCH   8  24
BRANCH   9  27
HETATM   27  O   UNK N   1      47.463  55.785  59.457  0.00  0.00    -0.356 OA
HETATM   28  H   UNK N   1      46.528  55.933  59.660  0.00  0.00     0.218 HD
ENDBRANCH   9  27
BRANCH   4  29
HETATM   29  C   UNK N   1      52.198  52.970  58.157  0.00  0.00     0.201 C 
BRANCH  29  30
HETATM   30  O   UNK N   1      52.906  52.185  57.218  0.00  0.00    -0.393 OA
HETATM   31  C   UNK N   1      53.520  53.015  56.262  0.00  0.00     0.201 C 
ENDBRANCH  29  30
ENDBRANCH   4  29
BRANCH  14  32
HETATM   32  O   UNK N   1      50.364  50.118  60.711  0.00  0.00    -0.312 OA
BRANCH  32  33
HETATM   33  C   UNK N   1      51.169  49.038  60.539  0.00  0.00     0.255 C 
HETATM   34  O   UNK N   1      51.048  48.046  61.245  0.00  0.00    -0.266 OA
HETATM   35  C   UNK N   1      52.201  49.060  59.458  0.00  0.00     0.126 C 
ENDBRANCH  32  33
ENDBRANCH  14  32
TORSDOF 6
ENDMDL
MODEL 7
REMARK VINA RESULT:      -4.3      5.023      8.172
REMARK  6 active torsions:
REMARK  status: ('A' for Active; 'I' for Inactive)
REMARK    1  A    between atoms: C_4  and  C_5 
REMARK    2  A    between atoms: C_5  and  O_6 
REMARK    3  A    between atoms: C_11  and  N_12 
REMARK    4  A    between atoms: C_15  and  O_16 
REMARK    5  A    between atoms: C_22  and  O_23 
REMARK    6  A    between atoms: O_23  and  C_24 
ROOT
HETATM    1  O   UNK N   1      32.258  43.926  57.286  0.00  0.00    -0.259 OA
HETATM    2  C   UNK N   1      32.130  43.872  58.497  0.00  0.00     0.295 C 
HETATM    3  O   UNK N   1      31.119  44.547  59.110  0.00  0.00    -0.308 OA
HETATM    4  C   UNK N   1      30.563  44.018  60.272  0.00  0.00     0.173 C 
HETATM    5  C   UNK N   1      31.680  43.890  61.405  0.00  0.00     0.042 C 
HETATM    6  C   UNK N   1      33.017  43.458  60.771  0.00  0.00     0.012 C 
HETATM    7  C   UNK N   1      33.017  43.037  59.341  0.00  0.00     0.064 C 
HETATM    8  C   UNK N   1      33.733  42.017  58.807  0.00  0.00     0.098 C 
HETATM    9  C   UNK N   1      34.186  43.670  61.429  0.00  0.00     0.125 C 
HETATM   10  C   UNK N   1      34.182  44.452  62.684  0.00  0.00     0.212 C 
HETATM   11  O   UNK N   1      35.203  44.545  63.348  0.00  0.00    -0.285 OA
HETATM   12  C   UNK N   1      33.020  45.340  62.971  0.00  0.00     0.006 C 
HETATM   13  C   UNK N   1      31.849  45.166  62.275  0.00  0.00    -0.024 C 
HETATM   14  C   UNK N   1      30.644  46.090  62.509  0.00  0.00     0.164 C 
HETATM   15  C   UNK N   1      30.984  47.393  63.245  0.00  0.00     0.055 C 
HETATM   16  C   UNK N   1      31.903  47.158  64.448  0.00  0.00     0.027 C 
HETATM   17  C   UNK N   1      32.448  48.472  64.923  0.00  0.00     0.136 C 
HETATM   18  O   UNK N   1      31.784  49.290  65.543  0.00  0.00    -0.297 OA
HETATM   19  C   UNK N   1      33.881  48.691  64.573  0.00  0.00     0.080 C 
HETATM   20  C   UNK N   1      34.114  47.584  63.538  0.00  0.00     0.018 C 
HETATM   21  C   UNK N   1      33.200  46.446  64.008  0.00  0.00     0.039 C 
HETATM   22  C   UNK N   1      31.213  46.379  65.590  0.00  0.00     0.024 C 
HETATM   23  C   UNK N   1      31.307  42.776  62.423  0.00  0.00     0.028 C 
ENDROOT
BRANCH   8  24
HETATM   24  N   UNK N   1      34.474  41.099  59.600  0.00  0.00    -0.407 N 
HETATM   25  H   UNK N   1      34.609  41.241  60.611  0.00  0.00     0.155 HD
HETATM   26  H   UNK N   1      34.764  40.200  59.191  0.00  0.00     0.155 HD
ENDBRANCH   8  24
BRANCH   9  27
HETATM   27  O   UNK N   1      35.372  43.323  60.872  0.00  0.00    -0.356 OA
HETATM   28  H   UNK N   1      35.639  43.630  59.994  0.00  0.00     0.218 HD
ENDBRANCH   9  27
BRANCH   4  29
HETATM   29  C   UNK N   1      29.833  42.706  59.878  0.00  0.00     0.201 C 
BRANCH  29  30
HETATM   30  O   UNK N   1      28.723  43.055  59.077  0.00  0.00    -0.393 OA
HETATM   31  C   UNK N   1      28.728  42.299  57.890  0.00  0.00     0.201 C 
ENDBRANCH  29  30
ENDBRANCH   4  29
BRANCH  14  32
HETATM   32  O   UNK N   1      29.663  45.375  63.175  0.00  0.00    -0.312 OA
BRANCH  32  33
HETATM   33  C   UNK N   1      28.337  45.670  63.149  0.00  0.00     0.255 C 
HETATM   34  O   UNK N   1      27.758  46.051  64.157  0.00  0.00    -0.266 OA
HETATM   35  C   UNK N   1      27.585  45.544  61.863  0.00  0.00     0.126 C 
ENDBRANCH  32  33
ENDBRANCH  14  32
TORSDOF 6
ENDMDL
MODEL 8
REMARK VINA RESULT:      -4.2      2.767      6.259
REMARK  6 active torsions:
REMARK  status: ('A' for Active; 'I' for Inactive)
REMARK    1  A    between atoms: C_4  and  C_5 
REMARK    2  A    between atoms: C_5  and  O_6 
REMARK    3  A    between atoms: C_11  and  N_12 
REMARK    4  A    between atoms: C_15  and  O_16 
REMARK    5  A    between atoms: C_22  and  O_23 
REMARK    6  A    between atoms: O_23  and  C_24 
ROOT
HETATM    1  O   UNK N   1      31.287  41.915  54.097  0.00  0.00    -0.259 OA
HETATM    2  C   UNK N   1      30.734  41.889  55.183  0.00  0.00     0.295 C 
HETATM    3  O   UNK N   1      31.463  42.006  56.328  0.00  0.00    -0.308 OA
HETATM    4  C   UNK N   1      30.885  42.620  57.435  0.00  0.00     0.173 C 
HETATM    5  C   UNK N   1      29.583  41.816  57.891  0.00  0.00     0.042 C 
HETATM    6  C   UNK N   1      28.825  41.306  56.650  0.00  0.00     0.012 C 
HETATM    7  C   UNK N   1      29.261  41.790  55.308  0.00  0.00     0.064 C 
HETATM    8  C   UNK N   1      28.447  42.113  54.272  0.00  0.00     0.098 C 
HETATM    9  C   UNK N   1      27.944  40.279  56.761  0.00  0.00     0.125 C 
HETATM   10  C   UNK N   1      27.828  39.557  58.045  0.00  0.00     0.212 C 
HETATM   11  O   UNK N   1      26.954  38.715  58.197  0.00  0.00    -0.285 OA
HETATM   12  C   UNK N   1      28.943  39.662  59.029  0.00  0.00     0.006 C 
HETATM   13  C   UNK N   1      29.868  40.667  58.896  0.00  0.00    -0.024 C 
HETATM   14  C   UNK N   1      31.058  40.781  59.862  0.00  0.00     0.164 C 
HETATM   15  C   UNK N   1      31.325  39.512  60.684  0.00  0.00     0.055 C 
HETATM   16  C   UNK N   1      30.038  38.911  61.259  0.00  0.00     0.027 C 
HETATM   17  C   UNK N   1      30.319  37.529  61.770  0.00  0.00     0.136 C 
HETATM   18  O   UNK N   1      30.929  37.306  62.804  0.00  0.00    -0.297 OA
HETATM   19  C   UNK N   1      29.780  36.446  60.898  0.00  0.00     0.080 C 
HETATM   20  C   UNK N   1      29.444  37.221  59.619  0.00  0.00     0.018 C 
HETATM   21  C   UNK N   1      29.031  38.607  60.130  0.00  0.00     0.039 C 
HETATM   22  C   UNK N   1      29.390  39.800  62.343  0.00  0.00     0.024 C 
HETATM   23  C   UNK N   1      28.595  42.750  58.644  0.00  0.00     0.028 C 
ENDROOT
BRANCH   8  24
HETATM   24  N   UNK N   1      27.033  42.180  54.396  0.00  0.00    -0.407 N 
HETATM   25  H   UNK N   1      26.485  41.400  54.785  0.00  0.00     0.155 HD
HETATM   26  H   UNK N   1      26.554  43.076  54.228  0.00  0.00     0.155 HD
ENDBRANCH   8  24
BRANCH   9  27
HETATM   27  O   UNK N   1      27.292  39.799  55.674  0.00  0.00    -0.356 OA
HETATM   28  H   UNK N   1      26.974  38.886  55.624  0.00  0.00     0.218 HD
ENDBRANCH   9  27
BRANCH   4  29
HETATM   29  C   UNK N   1      30.675  44.115  57.076  0.00  0.00     0.201 C 
BRANCH  29  30
HETATM   30  O   UNK N   1      31.311  44.890  58.073  0.00  0.00    -0.393 OA
HETATM   31  C   UNK N   1      30.712  46.161  58.150  0.00  0.00     0.201 C 
ENDBRANCH  29  30
ENDBRANCH   4  29
BRANCH  14  32
HETATM   32  O   UNK N   1      30.857  41.880  60.680  0.00  0.00    -0.312 OA
BRANCH  32  33
HETATM   33  C   UNK N   1      31.810  42.443  61.468  0.00  0.00     0.255 C 
HETATM   34  O   UNK N   1      31.666  42.503  62.682  0.00  0.00    -0.266 OA
HETATM   35  C   UNK N   1      33.057  42.976  60.840  0.00  0.00     0.126 C 
ENDBRANCH  32  33
ENDBRANCH  14  32
TORSDOF 6
ENDMDL
MODEL 9
REMARK VINA RESULT:      -4.2     22.503     25.732
REMARK  6 active torsions:
REMARK  status: ('A' for Active; 'I' for Inactive)
REMARK    1  A    between atoms: C_4  and  C_5 
REMARK    2  A    between atoms: C_5  and  O_6 
REMARK    3  A    between atoms: C_11  and  N_12 
REMARK    4  A    between atoms: C_15  and  O_16 
REMARK    5  A    between atoms: C_22  and  O_23 
REMARK    6  A    between atoms: O_23  and  C_24 
ROOT
HETATM    1  O   UNK N   1      49.837  54.582  52.826  0.00  0.00    -0.259 OA
HETATM    2  C   UNK N   1      49.988  54.917  53.988  0.00  0.00     0.295 C 
HETATM    3  O   UNK N   1      50.539  54.054  54.885  0.00  0.00    -0.308 OA
HETATM    4  C   UNK N   1      51.295  54.566  55.936  0.00  0.00     0.173 C 
HETATM    5  C   UNK N   1      50.400  55.533  56.836  0.00  0.00     0.042 C 
HETATM    6  C   UNK N   1      49.446  56.345  55.938  0.00  0.00     0.012 C 
HETATM    7  C   UNK N   1      49.640  56.278  54.461  0.00  0.00     0.064 C 
HETATM    8  C   UNK N   1      49.517  57.311  53.591  0.00  0.00     0.098 C 
HETATM    9  C   UNK N   1      48.333  56.917  56.464  0.00  0.00     0.125 C 
HETATM   10  C   UNK N   1      47.962  56.631  57.866  0.00  0.00     0.212 C 
HETATM   11  O   UNK N   1      47.036  57.233  58.388  0.00  0.00    -0.285 OA
HETATM   12  C   UNK N   1      48.535  55.424  58.526  0.00  0.00     0.006 C 
HETATM   13  C   UNK N   1      49.631  54.808  57.975  0.00  0.00    -0.024 C 
HETATM   14  C   UNK N   1      50.223  53.536  58.599  0.00  0.00     0.164 C 
HETATM   15  C   UNK N   1      49.290  52.830  59.592  0.00  0.00     0.055 C 
HETATM   16  C   UNK N   1      48.620  53.813  60.559  0.00  0.00     0.027 C 
HETATM   17  C   UNK N   1      47.502  53.120  61.278  0.00  0.00     0.136 C 
HETATM   18  O   UNK N   1      47.679  52.305  62.172  0.00  0.00    -0.297 OA
HETATM   19  C   UNK N   1      46.145  53.519  60.805  0.00  0.00     0.080 C 
HETATM   20  C   UNK N   1      46.479  54.248  59.499  0.00  0.00     0.018 C 
HETATM   21  C   UNK N   1      47.842  54.893  59.779  0.00  0.00     0.039 C 
HETATM   22  C   UNK N   1      49.617  54.462  61.544  0.00  0.00     0.024 C 
HETATM   23  C   UNK N   1      51.287  56.576  57.573  0.00  0.00     0.028 C 
ENDROOT
BRANCH   8  24
HETATM   24  N   UNK N   1      49.336  58.656  54.013  0.00  0.00    -0.407 N 
HETATM   25  H   UNK N   1      48.916  58.887  54.924  0.00  0.00     0.155 HD
HETATM   26  H   UNK N   1      49.760  59.417  53.464  0.00  0.00     0.155 HD
ENDBRANCH   8  24
BRANCH   9  27
HETATM   27  O   UNK N   1      47.468  57.608  55.681  0.00  0.00    -0.356 OA
HETATM   28  H   UNK N   1      47.020  58.409  55.989  0.00  0.00     0.218 HD
ENDBRANCH   9  27
BRANCH   4  29
HETATM   29  C   UNK N   1      52.575  55.192  55.320  0.00  0.00     0.201 C 
BRANCH  29  30
HETATM   30  O   UNK N   1      53.431  54.135  54.937  0.00  0.00    -0.393 OA
HETATM   31  C   UNK N   1      53.599  54.133  53.540  0.00  0.00     0.201 C 
ENDBRANCH  29  30
ENDBRANCH   4  29
BRANCH  14  32
HETATM   32  O   UNK N   1      51.436  53.855  59.184  0.00  0.00    -0.312 OA
BRANCH  32  33
HETATM   33  C   UNK N   1      52.445  52.972  59.408  0.00  0.00     0.255 C 
HETATM   34  O   UNK N   1      52.732  52.620  60.543  0.00  0.00    -0.266 OA
HETATM   35  C   UNK N   1      53.197  52.413  58.243  0.00  0.00     0.126 C 
ENDBRANCH  32  33
ENDBRANCH  14  32
TORSDOF 6
ENDMDL
