MODEL 1
REMARK VINA RESULT:      -5.7      0.000      0.000
REMARK  3 active torsions:
REMARK  status: ('A' for Active; 'I' for Inactive)
REMARK    1  A    between atoms: C_5  and  C_7 
REMARK    2  A    between atoms: C_9  and  O_10 
REMARK    3  A    between atoms: C_17  and  O_18 
ROOT
HETATM    1  C   UNK N   1      31.694  44.344  61.890  0.00  0.00     0.028 C 
HETATM    2  C   UNK N   1      31.710  44.462  63.438  0.00  0.00    -0.005 C 
HETATM    3  C   UNK N   1      31.909  45.998  63.631  0.00  0.00     0.070 C 
HETATM    4  C   UNK N   1      33.381  46.486  63.318  0.00  0.00     0.029 C 
HETATM    5  C   UNK N   1      34.433  45.660  64.088  0.00  0.00     0.005 C 
HETATM    6  C   UNK N   1      35.917  46.151  63.798  0.00  0.00    -0.017 C 
HETATM    7  C   UNK N   1      36.013  47.676  63.609  0.00  0.00    -0.072 C 
HETATM    8  C   UNK N   1      37.382  48.269  63.342  0.00  0.00     0.066 C 
HETATM    9  C   UNK N   1      37.934  47.629  62.058  0.00  0.00     0.122 C 
HETATM   10  C   UNK N   1      37.931  46.089  62.167  0.00  0.00     0.033 C 
HETATM   11  C   UNK N   1      36.515  45.555  62.482  0.00  0.00     0.016 C 
HETATM   12  C   UNK N   1      34.936  48.482  63.585  0.00  0.00    -0.023 C 
HETATM   13  C   UNK N   1      33.538  47.974  63.722  0.00  0.00     0.035 C 
HETATM   14  C   UNK N   1      36.774  45.720  65.023  0.00  0.00     0.020 C 
HETATM   15  C   UNK N   1      34.241  44.143  63.807  0.00  0.00     0.007 C 
HETATM   16  C   UNK N   1      32.831  43.670  64.163  0.00  0.00     0.013 C 
HETATM   17  C   UNK N   1      30.908  46.566  62.593  0.00  0.00     0.040 C 
HETATM   18  C   UNK N   1      30.890  45.572  61.413  0.00  0.00     0.013 C 
HETATM   19  C   UNK N   1      30.357  43.960  64.030  0.00  0.00     0.019 C 
ENDROOT
BRANCH   1  20
HETATM   20  C   UNK N   1      31.247  43.020  61.295  0.00  0.00    -0.045 A 
HETATM   21  C   UNK N   1      29.876  42.724  60.698  0.00  0.00     0.213 A 
HETATM   22  O   UNK N   1      29.991  41.398  60.306  0.00  0.00    -0.314 OA
HETATM   23  C   UNK N   1      31.215  40.929  60.594  0.00  0.00     0.283 A 
HETATM   24  O   UNK N   1      31.579  39.794  60.348  0.00  0.00    -0.260 OA
HETATM   25  C   UNK N   1      32.015  41.946  61.217  0.00  0.00     0.087 A 
ENDBRANCH   1  20
BRANCH   3  26
HETATM   26  O   UNK N   1      31.579  46.346  64.961  0.00  0.00    -0.389 OA
HETATM   27  H   UNK N   1      32.371  46.772  65.384  0.00  0.00     0.210 HD
ENDBRANCH   3  26
BRANCH   9  28
HETATM   28  O   UNK N   1      39.235  48.103  61.829  0.00  0.00    -0.395 OA
HETATM   29  H   UNK N   1      39.363  48.893  62.416  0.00  0.00     0.210 HD
ENDBRANCH   9  28
TORSDOF 3
ENDMDL
MODEL 2
REMARK VINA RESULT:      -5.6      0.695      1.082
REMARK  3 active torsions:
REMARK  status: ('A' for Active; 'I' for Inactive)
REMARK    1  A    between atoms: C_5  and  C_7 
REMARK    2  A    between atoms: C_9  and  O_10 
REMARK    3  A    between atoms: C_17  and  O_18 
ROOT
HETATM    1  C   UNK N   1      31.565  44.458  61.393  0.00  0.00     0.028 C 
HETATM    2  C   UNK N   1      31.501  44.411  62.943  0.00  0.00    -0.005 C 
HETATM    3  C   UNK N   1      31.691  45.918  63.307  0.00  0.00     0.070 C 
HETATM    4  C   UNK N   1      33.177  46.426  63.124  0.00  0.00     0.029 C 
HETATM    5  C   UNK N   1      34.186  45.517  63.857  0.00  0.00     0.005 C 
HETATM    6  C   UNK N   1      35.684  46.026  63.696  0.00  0.00    -0.017 C 
HETATM    7  C   UNK N   1      35.792  47.562  63.675  0.00  0.00    -0.072 C 
HETATM    8  C   UNK N   1      37.173  48.171  63.543  0.00  0.00     0.066 C 
HETATM    9  C   UNK N   1      37.791  47.666  62.229  0.00  0.00     0.122 C 
HETATM   10  C   UNK N   1      37.781  46.124  62.175  0.00  0.00     0.033 C 
HETATM   11  C   UNK N   1      36.350  45.569  62.358  0.00  0.00     0.016 C 
HETATM   12  C   UNK N   1      34.718  48.373  63.681  0.00  0.00    -0.023 C 
HETATM   13  C   UNK N   1      33.314  47.862  63.691  0.00  0.00     0.035 C 
HETATM   14  C   UNK N   1      36.476  45.463  64.912  0.00  0.00     0.020 C 
HETATM   15  C   UNK N   1      34.009  44.039  63.408  0.00  0.00     0.007 C 
HETATM   16  C   UNK N   1      32.581  43.540  63.638  0.00  0.00     0.013 C 
HETATM   17  C   UNK N   1      30.745  46.598  62.285  0.00  0.00     0.040 C 
HETATM   18  C   UNK N   1      30.788  45.734  61.008  0.00  0.00     0.013 C 
HETATM   19  C   UNK N   1      30.118  43.859  63.409  0.00  0.00     0.019 C 
ENDROOT
BRANCH   1  20
HETATM   20  C   UNK N   1      31.148  43.207  60.640  0.00  0.00    -0.045 A 
HETATM   21  C   UNK N   1      31.822  41.842  60.725  0.00  0.00     0.213 A 
HETATM   22  O   UNK N   1      31.064  41.069  59.859  0.00  0.00    -0.314 OA
HETATM   23  C   UNK N   1      30.078  41.802  59.318  0.00  0.00     0.283 A 
HETATM   24  O   UNK N   1      29.264  41.361  58.526  0.00  0.00    -0.260 OA
HETATM   25  C   UNK N   1      30.122  43.151  59.805  0.00  0.00     0.087 A 
ENDBRANCH   1  20
BRANCH   3  26
HETATM   26  O   UNK N   1      31.292  46.125  64.648  0.00  0.00    -0.389 OA
HETATM   27  H   UNK N   1      32.103  46.143  65.222  0.00  0.00     0.210 HD
ENDBRANCH   3  26
BRANCH   9  28
HETATM   28  O   UNK N   1      39.102  48.153  62.119  0.00  0.00    -0.395 OA
HETATM   29  H   UNK N   1      39.167  48.946  62.713  0.00  0.00     0.210 HD
ENDBRANCH   9  28
TORSDOF 3
ENDMDL
MODEL 3
REMARK VINA RESULT:      -5.5     22.108     24.456
REMARK  3 active torsions:
REMARK  status: ('A' for Active; 'I' for Inactive)
REMARK    1  A    between atoms: C_5  and  C_7 
REMARK    2  A    between atoms: C_9  and  O_10 
REMARK    3  A    between atoms: C_17  and  O_18 
ROOT
HETATM    1  C   UNK N   1      30.360  54.236  42.693  0.00  0.00     0.028 C 
HETATM    2  C   UNK N   1      30.503  54.839  41.270  0.00  0.00    -0.005 C 
HETATM    3  C   UNK N   1      29.067  55.403  41.027  0.00  0.00     0.070 C 
HETATM    4  C   UNK N   1      27.994  54.281  40.726  0.00  0.00     0.029 C 
HETATM    5  C   UNK N   1      28.452  53.341  39.591  0.00  0.00     0.005 C 
HETATM    6  C   UNK N   1      27.375  52.218  39.265  0.00  0.00    -0.017 C 
HETATM    7  C   UNK N   1      25.927  52.721  39.412  0.00  0.00    -0.072 C 
HETATM    8  C   UNK N   1      24.807  51.746  39.112  0.00  0.00     0.066 C 
HETATM    9  C   UNK N   1      24.956  50.545  40.060  0.00  0.00     0.122 C 
HETATM   10  C   UNK N   1      26.367  49.930  39.949  0.00  0.00     0.033 C 
HETATM   11  C   UNK N   1      27.460  50.987  40.224  0.00  0.00     0.016 C 
HETATM   12  C   UNK N   1      25.620  53.948  39.873  0.00  0.00    -0.023 C 
HETATM   13  C   UNK N   1      26.654  54.936  40.305  0.00  0.00     0.035 C 
HETATM   14  C   UNK N   1      27.628  51.774  37.795  0.00  0.00     0.020 C 
HETATM   15  C   UNK N   1      29.852  52.747  39.912  0.00  0.00     0.007 C 
HETATM   16  C   UNK N   1      30.895  53.841  40.149  0.00  0.00     0.013 C 
HETATM   17  C   UNK N   1      28.778  56.093  42.383  0.00  0.00     0.040 C 
HETATM   18  C   UNK N   1      29.488  55.251  43.463  0.00  0.00     0.013 C 
HETATM   19  C   UNK N   1      31.588  55.960  41.267  0.00  0.00     0.019 C 
ENDROOT
BRANCH   1  20
HETATM   20  C   UNK N   1      31.635  53.821  43.406  0.00  0.00    -0.045 A 
HETATM   21  C   UNK N   1      32.568  54.744  44.182  0.00  0.00     0.213 A 
HETATM   22  O   UNK N   1      33.558  53.879  44.626  0.00  0.00    -0.314 OA
HETATM   23  C   UNK N   1      33.304  52.627  44.214  0.00  0.00     0.283 A 
HETATM   24  O   UNK N   1      34.016  51.673  44.472  0.00  0.00    -0.260 OA
HETATM   25  C   UNK N   1      32.093  52.580  43.445  0.00  0.00     0.087 A 
ENDBRANCH   1  20
BRANCH   3  26
HETATM   26  O   UNK N   1      29.103  56.312  39.944  0.00  0.00    -0.389 OA
HETATM   27  H   UNK N   1      29.694  55.941  39.237  0.00  0.00     0.210 HD
ENDBRANCH   3  26
BRANCH   9  28
HETATM   28  O   UNK N   1      23.976  49.590  39.751  0.00  0.00    -0.395 OA
HETATM   29  H   UNK N   1      23.954  48.944  40.504  0.00  0.00     0.210 HD
ENDBRANCH   9  28
TORSDOF 3
ENDMDL
MODEL 4
REMARK VINA RESULT:      -5.5      5.763      9.082
REMARK  3 active torsions:
REMARK  status: ('A' for Active; 'I' for Inactive)
REMARK    1  A    between atoms: C_5  and  C_7 
REMARK    2  A    between atoms: C_9  and  O_10 
REMARK    3  A    between atoms: C_17  and  O_18 
ROOT
HETATM    1  C   UNK N   1      28.190  41.565  54.647  0.00  0.00     0.028 C 
HETATM    2  C   UNK N   1      29.319  40.665  55.216  0.00  0.00    -0.005 C 
HETATM    3  C   UNK N   1      28.903  40.555  56.717  0.00  0.00     0.070 C 
HETATM    4  C   UNK N   1      29.180  41.874  57.544  0.00  0.00     0.029 C 
HETATM    5  C   UNK N   1      30.636  42.359  57.377  0.00  0.00     0.005 C 
HETATM    6  C   UNK N   1      30.935  43.674  58.218  0.00  0.00    -0.017 C 
HETATM    7  C   UNK N   1      30.184  43.706  59.561  0.00  0.00    -0.072 C 
HETATM    8  C   UNK N   1      30.400  44.904  60.463  0.00  0.00     0.066 C 
HETATM    9  C   UNK N   1      29.974  46.163  59.690  0.00  0.00     0.122 C 
HETATM   10  C   UNK N   1      30.717  46.255  58.340  0.00  0.00     0.033 C 
HETATM   11  C   UNK N   1      30.489  44.984  57.490  0.00  0.00     0.016 C 
HETATM   12  C   UNK N   1      29.290  42.767  59.924  0.00  0.00    -0.023 C 
HETATM   13  C   UNK N   1      28.924  41.612  59.050  0.00  0.00     0.035 C 
HETATM   14  C   UNK N   1      32.470  43.697  58.475  0.00  0.00     0.020 C 
HETATM   15  C   UNK N   1      30.981  42.524  55.870  0.00  0.00     0.007 C 
HETATM   16  C   UNK N   1      30.760  41.228  55.088  0.00  0.00     0.013 C 
HETATM   17  C   UNK N   1      27.381  40.293  56.591  0.00  0.00     0.040 C 
HETATM   18  C   UNK N   1      26.906  41.068  55.344  0.00  0.00     0.013 C 
HETATM   19  C   UNK N   1      29.318  39.280  54.498  0.00  0.00     0.019 C 
ENDROOT
BRANCH   1  20
HETATM   20  C   UNK N   1      28.088  41.686  53.137  0.00  0.00    -0.045 A 
HETATM   21  C   UNK N   1      28.998  42.520  52.241  0.00  0.00     0.213 A 
HETATM   22  O   UNK N   1      28.484  42.284  50.975  0.00  0.00    -0.314 OA
HETATM   23  C   UNK N   1      27.438  41.447  51.043  0.00  0.00     0.283 A 
HETATM   24  O   UNK N   1      26.807  41.072  50.071  0.00  0.00    -0.260 OA
HETATM   25  C   UNK N   1      27.181  41.063  52.402  0.00  0.00     0.087 A 
ENDBRANCH   1  20
BRANCH   3  26
HETATM   26  O   UNK N   1      29.599  39.479  57.314  0.00  0.00    -0.389 OA
HETATM   27  H   UNK N   1      29.604  39.610  58.299  0.00  0.00     0.210 HD
ENDBRANCH   3  26
BRANCH   9  28
HETATM   28  O   UNK N   1      30.237  47.296  60.474  0.00  0.00    -0.395 OA
HETATM   29  H   UNK N   1      29.594  47.998  60.194  0.00  0.00     0.210 HD
ENDBRANCH   9  28
TORSDOF 3
ENDMDL
MODEL 5
REMARK VINA RESULT:      -5.4      5.809     10.353
REMARK  3 active torsions:
REMARK  status: ('A' for Active; 'I' for Inactive)
REMARK    1  A    between atoms: C_5  and  C_7 
REMARK    2  A    between atoms: C_9  and  O_10 
REMARK    3  A    between atoms: C_17  and  O_18 
ROOT
HETATM    1  C   UNK N   1      29.699  45.496  57.884  0.00  0.00     0.028 C 
HETATM    2  C   UNK N   1      29.517  44.082  58.496  0.00  0.00    -0.005 C 
HETATM    3  C   UNK N   1      30.442  43.224  57.577  0.00  0.00     0.070 C 
HETATM    4  C   UNK N   1      29.836  42.965  56.140  0.00  0.00     0.029 C 
HETATM    5  C   UNK N   1      28.403  42.397  56.218  0.00  0.00     0.005 C 
HETATM    6  C   UNK N   1      27.786  42.115  54.780  0.00  0.00    -0.017 C 
HETATM    7  C   UNK N   1      28.836  41.620  53.769  0.00  0.00    -0.072 C 
HETATM    8  C   UNK N   1      28.367  41.300  52.364  0.00  0.00     0.066 C 
HETATM    9  C   UNK N   1      27.746  42.574  51.768  0.00  0.00     0.122 C 
HETATM   10  C   UNK N   1      26.635  43.124  52.688  0.00  0.00     0.033 C 
HETATM   11  C   UNK N   1      27.170  43.388  54.114  0.00  0.00     0.016 C 
HETATM   12  C   UNK N   1      30.150  41.545  54.052  0.00  0.00    -0.023 C 
HETATM   13  C   UNK N   1      30.720  41.950  55.372  0.00  0.00     0.035 C 
HETATM   14  C   UNK N   1      26.691  41.026  54.973  0.00  0.00     0.020 C 
HETATM   15  C   UNK N   1      27.500  43.323  57.081  0.00  0.00     0.007 C 
HETATM   16  C   UNK N   1      28.068  43.525  58.487  0.00  0.00     0.013 C 
HETATM   17  C   UNK N   1      31.701  44.123  57.490  0.00  0.00     0.040 C 
HETATM   18  C   UNK N   1      31.201  45.582  57.537  0.00  0.00     0.013 C 
HETATM   19  C   UNK N   1      29.987  44.075  59.984  0.00  0.00     0.019 C 
ENDROOT
BRANCH   1  20
HETATM   20  C   UNK N   1      29.161  46.675  58.677  0.00  0.00    -0.045 A 
HETATM   21  C   UNK N   1      27.707  46.897  59.076  0.00  0.00     0.213 A 
HETATM   22  O   UNK N   1      27.758  48.096  59.773  0.00  0.00    -0.314 OA
HETATM   23  C   UNK N   1      29.018  48.558  59.817  0.00  0.00     0.283 A 
HETATM   24  O   UNK N   1      29.340  49.592  60.374  0.00  0.00    -0.260 OA
HETATM   25  C   UNK N   1      29.910  47.668  59.129  0.00  0.00     0.087 A 
ENDBRANCH   1  20
BRANCH   3  26
HETATM   26  O   UNK N   1      30.695  41.982  58.204  0.00  0.00    -0.389 OA
HETATM   27  H   UNK N   1      30.371  42.026  59.142  0.00  0.00     0.210 HD
ENDBRANCH   3  26
BRANCH   9  28
HETATM   28  O   UNK N   1      27.233  42.285  50.495  0.00  0.00    -0.395 OA
HETATM   29  H   UNK N   1      26.398  41.766  50.631  0.00  0.00     0.210 HD
ENDBRANCH   9  28
TORSDOF 3
ENDMDL
MODEL 6
REMARK VINA RESULT:      -5.4      4.805      7.475
REMARK  3 active torsions:
REMARK  status: ('A' for Active; 'I' for Inactive)
REMARK    1  A    between atoms: C_5  and  C_7 
REMARK    2  A    between atoms: C_9  and  O_10 
REMARK    3  A    between atoms: C_17  and  O_18 
ROOT
HETATM    1  C   UNK N   1      29.407  48.022  59.367  0.00  0.00     0.028 C 
HETATM    2  C   UNK N   1      28.213  47.031  59.401  0.00  0.00    -0.005 C 
HETATM    3  C   UNK N   1      28.510  46.232  60.710  0.00  0.00     0.070 C 
HETATM    4  C   UNK N   1      29.700  45.201  60.560  0.00  0.00     0.029 C 
HETATM    5  C   UNK N   1      29.503  44.273  59.342  0.00  0.00     0.005 C 
HETATM    6  C   UNK N   1      30.683  43.218  59.189  0.00  0.00    -0.017 C 
HETATM    7  C   UNK N   1      31.223  42.728  60.545  0.00  0.00    -0.072 C 
HETATM    8  C   UNK N   1      32.341  41.706  60.531  0.00  0.00     0.066 C 
HETATM    9  C   UNK N   1      33.533  42.315  59.776  0.00  0.00     0.122 C 
HETATM   10  C   UNK N   1      33.106  42.792  58.371  0.00  0.00     0.033 C 
HETATM   11  C   UNK N   1      31.936  43.799  58.456  0.00  0.00     0.016 C 
HETATM   12  C   UNK N   1      30.808  43.227  61.724  0.00  0.00    -0.023 C 
HETATM   13  C   UNK N   1      29.795  44.320  61.832  0.00  0.00     0.035 C 
HETATM   14  C   UNK N   1      30.101  42.016  58.391  0.00  0.00     0.020 C 
HETATM   15  C   UNK N   1      29.284  45.113  58.052  0.00  0.00     0.007 C 
HETATM   16  C   UNK N   1      28.099  46.070  58.188  0.00  0.00     0.013 C 
HETATM   17  C   UNK N   1      28.891  47.375  61.683  0.00  0.00     0.040 C 
HETATM   18  C   UNK N   1      29.600  48.453  60.836  0.00  0.00     0.013 C 
HETATM   19  C   UNK N   1      26.866  47.813  59.478  0.00  0.00     0.019 C 
ENDROOT
BRANCH   1  20
HETATM   20  C   UNK N   1      29.335  49.167  58.372  0.00  0.00    -0.045 A 
HETATM   21  C   UNK N   1      29.020  50.622  58.701  0.00  0.00     0.213 A 
HETATM   22  O   UNK N   1      29.082  51.239  57.460  0.00  0.00    -0.314 OA
HETATM   23  C   UNK N   1      29.386  50.344  56.507  0.00  0.00     0.283 A 
HETATM   24  O   UNK N   1      29.507  50.626  55.329  0.00  0.00    -0.260 OA
HETATM   25  C   UNK N   1      29.548  49.035  57.073  0.00  0.00     0.087 A 
ENDBRANCH   1  20
BRANCH   3  26
HETATM   26  O   UNK N   1      27.343  45.538  61.105  0.00  0.00    -0.389 OA
HETATM   27  H   UNK N   1      27.573  44.581  61.244  0.00  0.00     0.210 HD
ENDBRANCH   3  26
BRANCH   9  28
HETATM   28  O   UNK N   1      34.555  41.360  59.680  0.00  0.00    -0.395 OA
HETATM   29  H   UNK N   1      35.263  41.628  60.323  0.00  0.00     0.210 HD
ENDBRANCH   9  28
TORSDOF 3
ENDMDL
MODEL 7
REMARK VINA RESULT:      -5.4     11.598     14.135
REMARK  3 active torsions:
REMARK  status: ('A' for Active; 'I' for Inactive)
REMARK    1  A    between atoms: C_5  and  C_7 
REMARK    2  A    between atoms: C_9  and  O_10 
REMARK    3  A    between atoms: C_17  and  O_18 
ROOT
HETATM    1  C   UNK N   1      44.813  50.938  61.626  0.00  0.00     0.028 C 
HETATM    2  C   UNK N   1      44.993  51.198  63.145  0.00  0.00    -0.005 C 
HETATM    3  C   UNK N   1      43.579  51.732  63.538  0.00  0.00     0.070 C 
HETATM    4  C   UNK N   1      43.308  53.213  63.051  0.00  0.00     0.029 C 
HETATM    5  C   UNK N   1      44.436  54.173  63.486  0.00  0.00     0.005 C 
HETATM    6  C   UNK N   1      44.169  55.669  63.019  0.00  0.00    -0.017 C 
HETATM    7  C   UNK N   1      42.677  56.047  63.057  0.00  0.00    -0.072 C 
HETATM    8  C   UNK N   1      42.295  57.455  62.649  0.00  0.00     0.066 C 
HETATM    9  C   UNK N   1      42.770  57.676  61.204  0.00  0.00     0.122 C 
HETATM   10  C   UNK N   1      44.278  57.374  61.070  0.00  0.00     0.033 C 
HETATM   11  C   UNK N   1      44.603  55.939  61.542  0.00  0.00     0.016 C 
HETATM   12  C   UNK N   1      41.703  55.165  63.350  0.00  0.00    -0.023 C 
HETATM   13  C   UNK N   1      41.974  53.726  63.649  0.00  0.00     0.035 C 
HETATM   14  C   UNK N   1      44.967  56.585  63.991  0.00  0.00     0.020 C 
HETATM   15  C   UNK N   1      45.816  53.637  63.009  0.00  0.00     0.007 C 
HETATM   16  C   UNK N   1      46.091  52.225  63.528  0.00  0.00     0.013 C 
HETATM   17  C   UNK N   1      42.659  50.731  62.795  0.00  0.00     0.040 C 
HETATM   18  C   UNK N   1      43.395  50.343  61.496  0.00  0.00     0.013 C 
HETATM   19  C   UNK N   1      45.350  49.870  63.880  0.00  0.00     0.019 C 
ENDROOT
BRANCH   1  20
HETATM   20  C   UNK N   1      45.902  50.150  60.919  0.00  0.00    -0.045 A 
HETATM   21  C   UNK N   1      47.347  50.593  60.725  0.00  0.00     0.213 A 
HETATM   22  O   UNK N   1      47.906  49.528  60.034  0.00  0.00    -0.314 OA
HETATM   23  C   UNK N   1      46.988  48.572  59.826  0.00  0.00     0.283 A 
HETATM   24  O   UNK N   1      47.220  47.526  59.246  0.00  0.00    -0.260 OA
HETATM   25  C   UNK N   1      45.721  48.954  60.381  0.00  0.00     0.087 A 
ENDBRANCH   1  20
BRANCH   3  26
HETATM   26  O   UNK N   1      43.435  51.674  64.943  0.00  0.00    -0.389 OA
HETATM   27  H   UNK N   1      43.405  52.601  65.299  0.00  0.00     0.210 HD
ENDBRANCH   3  26
BRANCH   9  28
HETATM   28  O   UNK N   1      42.499  59.000  60.827  0.00  0.00    -0.395 OA
HETATM   29  H   UNK N   1      42.867  59.122  59.913  0.00  0.00     0.210 HD
ENDBRANCH   9  28
TORSDOF 3
ENDMDL
MODEL 8
REMARK VINA RESULT:      -5.2      5.435      7.538
REMARK  3 active torsions:
REMARK  status: ('A' for Active; 'I' for Inactive)
REMARK    1  A    between atoms: C_5  and  C_7 
REMARK    2  A    between atoms: C_9  and  O_10 
REMARK    3  A    between atoms: C_17  and  O_18 
ROOT
HETATM    1  C   UNK N   1      29.274  43.631  58.383  0.00  0.00     0.028 C 
HETATM    2  C   UNK N   1      30.539  44.296  58.986  0.00  0.00    -0.005 C 
HETATM    3  C   UNK N   1      29.927  45.112  60.169  0.00  0.00     0.070 C 
HETATM    4  C   UNK N   1      29.151  46.408  59.702  0.00  0.00     0.029 C 
HETATM    5  C   UNK N   1      30.012  47.287  58.772  0.00  0.00     0.005 C 
HETATM    6  C   UNK N   1      29.251  48.604  58.309  0.00  0.00    -0.017 C 
HETATM    7  C   UNK N   1      28.337  49.180  59.406  0.00  0.00    -0.072 C 
HETATM    8  C   UNK N   1      27.567  50.447  59.091  0.00  0.00     0.066 C 
HETATM    9  C   UNK N   1      26.673  50.169  57.872  0.00  0.00     0.122 C 
HETATM   10  C   UNK N   1      27.509  49.635  56.689  0.00  0.00     0.033 C 
HETATM   11  C   UNK N   1      28.300  48.369  57.091  0.00  0.00     0.016 C 
HETATM   12  C   UNK N   1      28.129  48.565  60.585  0.00  0.00    -0.023 C 
HETATM   13  C   UNK N   1      28.751  47.254  60.939  0.00  0.00     0.035 C 
HETATM   14  C   UNK N   1      30.348  49.645  57.942  0.00  0.00     0.020 C 
HETATM   15  C   UNK N   1      30.538  46.451  57.571  0.00  0.00     0.007 C 
HETATM   16  C   UNK N   1      31.333  45.228  58.032  0.00  0.00     0.013 C 
HETATM   17  C   UNK N   1      28.952  44.075  60.780  0.00  0.00     0.040 C 
HETATM   18  C   UNK N   1      28.423  43.226  59.605  0.00  0.00     0.013 C 
HETATM   19  C   UNK N   1      31.540  43.204  59.476  0.00  0.00     0.019 C 
ENDROOT
BRANCH   1  20
HETATM   20  C   UNK N   1      29.485  42.528  57.360  0.00  0.00    -0.045 A 
HETATM   21  C   UNK N   1      29.221  41.042  57.578  0.00  0.00     0.213 A 
HETATM   22  O   UNK N   1      29.569  40.486  56.356  0.00  0.00    -0.314 OA
HETATM   23  C   UNK N   1      29.977  41.440  55.506  0.00  0.00     0.283 A 
HETATM   24  O   UNK N   1      30.334  41.220  54.362  0.00  0.00    -0.260 OA
HETATM   25  C   UNK N   1      29.927  42.732  56.130  0.00  0.00     0.087 A 
ENDBRANCH   1  20
BRANCH   3  26
HETATM   26  O   UNK N   1      30.961  45.486  61.058  0.00  0.00    -0.389 OA
HETATM   27  H   UNK N   1      30.590  45.526  61.979  0.00  0.00     0.210 HD
ENDBRANCH   3  26
BRANCH   9  28
HETATM   28  O   UNK N   1      26.007  51.349  57.510  0.00  0.00    -0.395 OA
HETATM   29  H   UNK N   1      25.476  51.635  58.298  0.00  0.00     0.210 HD
ENDBRANCH   9  28
TORSDOF 3
ENDMDL
MODEL 9
REMARK VINA RESULT:      -5.2      5.197      7.371
REMARK  3 active torsions:
REMARK  status: ('A' for Active; 'I' for Inactive)
REMARK    1  A    between atoms: C_5  and  C_7 
REMARK    2  A    between atoms: C_9  and  O_10 
REMARK    3  A    between atoms: C_17  and  O_18 
ROOT
HETATM    1  C   UNK N   1      29.569  43.978  58.770  0.00  0.00     0.028 C 
HETATM    2  C   UNK N   1      28.909  44.762  59.935  0.00  0.00    -0.005 C 
HETATM    3  C   UNK N   1      27.681  45.408  59.219  0.00  0.00     0.070 C 
HETATM    4  C   UNK N   1      28.068  46.619  58.278  0.00  0.00     0.029 C 
HETATM    5  C   UNK N   1      28.930  47.665  59.016  0.00  0.00     0.005 C 
HETATM    6  C   UNK N   1      29.311  48.897  58.087  0.00  0.00    -0.017 C 
HETATM    7  C   UNK N   1      28.188  49.271  57.103  0.00  0.00    -0.072 C 
HETATM    8  C   UNK N   1      28.425  50.444  56.173  0.00  0.00     0.066 C 
HETATM    9  C   UNK N   1      29.669  50.132  55.325  0.00  0.00     0.122 C 
HETATM   10  C   UNK N   1      30.876  49.795  56.225  0.00  0.00     0.033 C 
HETATM   11  C   UNK N   1      30.552  48.620  57.177  0.00  0.00     0.016 C 
HETATM   12  C   UNK N   1      27.054  48.557  56.978  0.00  0.00    -0.023 C 
HETATM   13  C   UNK N   1      26.782  47.319  57.768  0.00  0.00     0.035 C 
HETATM   14  C   UNK N   1      29.597  50.096  59.036  0.00  0.00     0.020 C 
HETATM   15  C   UNK N   1      30.178  46.988  59.649  0.00  0.00     0.007 C 
HETATM   16  C   UNK N   1      29.791  45.853  60.599  0.00  0.00     0.013 C 
HETATM   17  C   UNK N   1      27.150  44.213  58.390  0.00  0.00     0.040 C 
HETATM   18  C   UNK N   1      28.384  43.382  57.980  0.00  0.00     0.013 C 
HETATM   19  C   UNK N   1      28.484  43.782  61.072  0.00  0.00     0.019 C 
ENDROOT
BRANCH   1  20
HETATM   20  C   UNK N   1      30.660  42.984  59.127  0.00  0.00    -0.045 A 
HETATM   21  C   UNK N   1      30.487  41.476  59.269  0.00  0.00     0.213 A 
HETATM   22  O   UNK N   1      31.765  41.048  59.598  0.00  0.00    -0.314 OA
HETATM   23  C   UNK N   1      32.608  42.091  59.651  0.00  0.00     0.283 A 
HETATM   24  O   UNK N   1      33.793  41.991  59.914  0.00  0.00    -0.260 OA
HETATM   25  C   UNK N   1      31.920  43.316  59.355  0.00  0.00     0.087 A 
ENDBRANCH   1  20
BRANCH   3  26
HETATM   26  O   UNK N   1      26.759  45.856  60.193  0.00  0.00    -0.389 OA
HETATM   27  H   UNK N   1      27.261  46.299  60.927  0.00  0.00     0.210 HD
ENDBRANCH   3  26
BRANCH   9  28
HETATM   28  O   UNK N   1      29.958  51.236  54.508  0.00  0.00    -0.395 OA
HETATM   29  H   UNK N   1      29.912  50.920  53.568  0.00  0.00     0.210 HD
ENDBRANCH   9  28
TORSDOF 3
ENDMDL
